<?xml version="1.0" encoding="UTF-8"?>

<!-- generated on 2026-02-02 21:32:55 by Eclipse SUMO netedit Version 1.24.0
-->

<routes xmlns:xsi="http://www.w3.org/2001/XMLSchema-instance" xsi:noNamespaceSchemaLocation="http://sumo.dlr.de/xsd/routes_file.xsd">
    <!-- Routes -->
    <route id="r_en" edges="E3 -E9 E6 E10 -E0"/>
    <route id="r_es" edges="E3 -E9 E14 E15 -E2"/>
    <route id="r_ew" edges="E3 -E9 E12 E13 -E1"/>
    <route id="r_ne" edges="E0 -E10 -E6 E9 -E3"/>
    <route id="r_ns" edges="E0 -E10 -E6 E14 E15 -E2"/>
    <route id="r_nw" edges="E0 -E10 -E6 E12 E13 -E1"/>
    <route id="r_se" edges="E2 -E15 -E14 E9 -E3"/>
    <route id="r_sn" edges="E2 -E15 -E14 E6 E10 -E0"/>
    <route id="r_sw" edges="E2 -E15 -E14 E12 E13 -E1"/>
    <route id="r_we" edges="E1 -E13 -E12 E9 -E3"/>
    <route id="r_wn" edges="E1 -E13 -E12 E6 E10 -E0"/>
    <route id="r_ws" edges="E1 -E13 -E12 E14 E15 -E2"/>

  <vehicle id="vehicle_1" depart="0.00" route="r_we" departLane="best_prob" departSpeed="avg" departPos="last" insertionChecks="all"/>
  <vehicle id="vehicle_2" depart="0.00" route="r_nw" departLane="best_prob" departSpeed="avg" departPos="last" insertionChecks="all"/>
  <vehicle id="vehicle_5" depart="0.00" route="r_ne" departLane="best_prob" departSpeed="avg" departPos="last" insertionChecks="all"/>
  <vehicle id="vehicle_7" depart="0.00" route="r_ew" departLane="best_prob" departSpeed="avg" departPos="last" insertionChecks="all"/>
  <vehicle id="vehicle_9" depart="0.00" route="r_en" departLane="best_prob" departSpeed="avg" departPos="last" insertionChecks="all"/>
  <vehicle id="vehicle_10" depart="0.00" route="r_es" departLane="best_prob" departSpeed="avg" departPos="last" insertionChecks="all"/>
  <vehicle id="vehicle_11" depart="0.00" route="r_sn" departLane="best_prob" departSpeed="avg" departPos="last" insertionChecks="all"/>
  <vehicle id="vehicle_15" depart="0.00" route="r_se" departLane="best_prob" departSpeed="avg" departPos="last" insertionChecks="all"/>
  <vehicle id="vehicle_18" depart="0.00" route="r_sw" departLane="best_prob" departSpeed="avg" departPos="last" insertionChecks="all"/>
  <vehicle id="vehicle_12" depart="15.00" route="r_sn" departLane="best_prob" departSpeed="avg" departPos="last" insertionChecks="all"/>
  <vehicle id="vehicle_3" depart="20.00" route="r_nw" departLane="best_prob" departSpeed="avg" departPos="last" insertionChecks="all"/>
  <vehicle id="vehicle_16" depart="20.00" route="r_se" departLane="best_prob" departSpeed="avg" departPos="last" insertionChecks="all"/>
  <vehicle id="vehicle_6" depart="30.00" route="r_ne" departLane="best_prob" departSpeed="avg" departPos="last" insertionChecks="all"/>
  <vehicle id="vehicle_8" depart="30.00" route="r_ew" departLane="best_prob" departSpeed="avg" departPos="last" insertionChecks="all"/>
  <vehicle id="vehicle_13" depart="30.00" route="r_sn" departLane="best_prob" departSpeed="avg" departPos="last" insertionChecks="all"/>
  <vehicle id="vehicle_19" depart="30.00" route="r_sw" departLane="best_prob" departSpeed="avg" departPos="last" insertionChecks="all"/>
  <vehicle id="vehicle_4" depart="40.00" route="r_nw" departLane="best_prob" departSpeed="avg" departPos="last" insertionChecks="all"/>
  <vehicle id="vehicle_17" depart="40.00" route="r_se" departLane="best_prob" departSpeed="avg" departPos="last" insertionChecks="all"/>
  <vehicle id="vehicle_14" depart="45.00" route="r_sn" departLane="best_prob" departSpeed="avg" departPos="last" insertionChecks="all"/>
  <vehicle id="vehicle_20" depart="60.00" route="r_nw" departLane="best_prob" departSpeed="avg" departPos="last" insertionChecks="all"/>
  <vehicle id="vehicle_23" depart="60.00" route="r_ew" departLane="best_prob" departSpeed="avg" departPos="last" insertionChecks="all"/>
  <vehicle id="vehicle_33" depart="60.00" route="r_en" departLane="best_prob" departSpeed="avg" departPos="last" insertionChecks="all"/>
  <vehicle id="vehicle_38" depart="60.00" route="r_sn" departLane="best_prob" departSpeed="avg" departPos="last" insertionChecks="all"/>
  <vehicle id="vehicle_40" depart="60.00" route="r_se" departLane="best_prob" departSpeed="avg" departPos="last" insertionChecks="all"/>
  <vehicle id="vehicle_42" depart="60.00" route="r_sw" departLane="best_prob" departSpeed="avg" departPos="last" insertionChecks="all"/>
  <vehicle id="vehicle_24" depart="66.00" route="r_ew" departLane="best_prob" departSpeed="avg" departPos="last" insertionChecks="all"/>
  <vehicle id="vehicle_25" depart="72.00" route="r_ew" departLane="best_prob" departSpeed="avg" departPos="last" insertionChecks="all"/>
  <vehicle id="vehicle_34" depart="72.00" route="r_en" departLane="best_prob" departSpeed="avg" departPos="last" insertionChecks="all"/>
  <vehicle id="vehicle_26" depart="78.00" route="r_ew" departLane="best_prob" departSpeed="avg" departPos="last" insertionChecks="all"/>
  <vehicle id="vehicle_21" depart="80.00" route="r_nw" departLane="best_prob" departSpeed="avg" departPos="last" insertionChecks="all"/>
  <vehicle id="vehicle_43" depart="80.00" route="r_sw" departLane="best_prob" departSpeed="avg" departPos="last" insertionChecks="all"/>
  <vehicle id="vehicle_27" depart="84.00" route="r_ew" departLane="best_prob" departSpeed="avg" departPos="last" insertionChecks="all"/>
  <vehicle id="vehicle_35" depart="84.00" route="r_en" departLane="best_prob" departSpeed="avg" departPos="last" insertionChecks="all"/>
  <vehicle id="vehicle_28" depart="90.00" route="r_ew" departLane="best_prob" departSpeed="avg" departPos="last" insertionChecks="all"/>
  <vehicle id="vehicle_39" depart="90.00" route="r_sn" departLane="best_prob" departSpeed="avg" departPos="last" insertionChecks="all"/>
  <vehicle id="vehicle_41" depart="90.00" route="r_se" departLane="best_prob" departSpeed="avg" departPos="last" insertionChecks="all"/>
  <vehicle id="vehicle_29" depart="96.00" route="r_ew" departLane="best_prob" departSpeed="avg" departPos="last" insertionChecks="all"/>
  <vehicle id="vehicle_36" depart="96.00" route="r_en" departLane="best_prob" departSpeed="avg" departPos="last" insertionChecks="all"/>
  <vehicle id="vehicle_22" depart="100.00" route="r_nw" departLane="best_prob" departSpeed="avg" departPos="last" insertionChecks="all"/>
  <vehicle id="vehicle_44" depart="100.00" route="r_sw" departLane="best_prob" departSpeed="avg" departPos="last" insertionChecks="all"/>
  <vehicle id="vehicle_30" depart="102.00" route="r_ew" departLane="best_prob" departSpeed="avg" departPos="last" insertionChecks="all"/>
  <vehicle id="vehicle_31" depart="108.00" route="r_ew" departLane="best_prob" departSpeed="avg" departPos="last" insertionChecks="all"/>
  <vehicle id="vehicle_37" depart="108.00" route="r_en" departLane="best_prob" departSpeed="avg" departPos="last" insertionChecks="all"/>
  <vehicle id="vehicle_32" depart="114.00" route="r_ew" departLane="best_prob" departSpeed="avg" departPos="last" insertionChecks="all"/>
  <vehicle id="vehicle_45" depart="120.00" route="r_nw" departLane="best_prob" departSpeed="avg" departPos="last" insertionChecks="all"/>
  <vehicle id="vehicle_46" depart="120.00" route="r_ew" departLane="best_prob" departSpeed="avg" departPos="last" insertionChecks="all"/>
  <vehicle id="vehicle_48" depart="120.00" route="r_en" departLane="best_prob" departSpeed="avg" departPos="last" insertionChecks="all"/>
  <vehicle id="vehicle_49" depart="120.00" route="r_se" departLane="best_prob" departSpeed="avg" departPos="last" insertionChecks="all"/>
  <vehicle id="vehicle_50" depart="120.00" route="r_sw" departLane="best_prob" departSpeed="avg" departPos="last" insertionChecks="all"/>
  <vehicle id="vehicle_51" depart="128.57" route="r_sw" departLane="best_prob" departSpeed="avg" departPos="last" insertionChecks="all"/>
  <vehicle id="vehicle_52" depart="137.14" route="r_sw" departLane="best_prob" departSpeed="avg" departPos="last" insertionChecks="all"/>
  <vehicle id="vehicle_53" depart="145.71" route="r_sw" departLane="best_prob" departSpeed="avg" departPos="last" insertionChecks="all"/>
  <vehicle id="vehicle_47" depart="150.00" route="r_ew" departLane="best_prob" departSpeed="avg" departPos="last" insertionChecks="all"/>
  <vehicle id="vehicle_54" depart="154.29" route="r_sw" departLane="best_prob" departSpeed="avg" departPos="last" insertionChecks="all"/>
  <vehicle id="vehicle_55" depart="162.86" route="r_sw" departLane="best_prob" departSpeed="avg" departPos="last" insertionChecks="all"/>
  <vehicle id="vehicle_56" depart="171.43" route="r_sw" departLane="best_prob" departSpeed="avg" departPos="last" insertionChecks="all"/>
  <vehicle id="vehicle_57" depart="180.00" route="r_nw" departLane="best_prob" departSpeed="avg" departPos="last" insertionChecks="all"/>
  <vehicle id="vehicle_59" depart="180.00" route="r_ew" departLane="best_prob" departSpeed="avg" departPos="last" insertionChecks="all"/>
  <vehicle id="vehicle_64" depart="180.00" route="r_en" departLane="best_prob" departSpeed="avg" departPos="last" insertionChecks="all"/>
  <vehicle id="vehicle_67" depart="180.00" route="r_sn" departLane="best_prob" departSpeed="avg" departPos="last" insertionChecks="all"/>
  <vehicle id="vehicle_69" depart="180.00" route="r_se" departLane="best_prob" departSpeed="avg" departPos="last" insertionChecks="all"/>
  <vehicle id="vehicle_71" depart="180.00" route="r_sw" departLane="best_prob" departSpeed="avg" departPos="last" insertionChecks="all"/>
  <vehicle id="vehicle_60" depart="192.00" route="r_ew" departLane="best_prob" departSpeed="avg" departPos="last" insertionChecks="all"/>
  <vehicle id="vehicle_72" depart="192.00" route="r_sw" departLane="best_prob" departSpeed="avg" departPos="last" insertionChecks="all"/>
  <vehicle id="vehicle_65" depart="200.00" route="r_en" departLane="best_prob" departSpeed="avg" departPos="last" insertionChecks="all"/>
  <vehicle id="vehicle_61" depart="204.00" route="r_ew" departLane="best_prob" departSpeed="avg" departPos="last" insertionChecks="all"/>
  <vehicle id="vehicle_73" depart="204.00" route="r_sw" departLane="best_prob" departSpeed="avg" departPos="last" insertionChecks="all"/>
  <vehicle id="vehicle_58" depart="210.00" route="r_nw" departLane="best_prob" departSpeed="avg" departPos="last" insertionChecks="all"/>
  <vehicle id="vehicle_68" depart="210.00" route="r_sn" departLane="best_prob" departSpeed="avg" departPos="last" insertionChecks="all"/>
  <vehicle id="vehicle_70" depart="210.00" route="r_se" departLane="best_prob" departSpeed="avg" departPos="last" insertionChecks="all"/>
  <vehicle id="vehicle_62" depart="216.00" route="r_ew" departLane="best_prob" departSpeed="avg" departPos="last" insertionChecks="all"/>
  <vehicle id="vehicle_74" depart="216.00" route="r_sw" departLane="best_prob" departSpeed="avg" departPos="last" insertionChecks="all"/>
  <vehicle id="vehicle_66" depart="220.00" route="r_en" departLane="best_prob" departSpeed="avg" departPos="last" insertionChecks="all"/>
  <vehicle id="vehicle_63" depart="228.00" route="r_ew" departLane="best_prob" departSpeed="avg" departPos="last" insertionChecks="all"/>
  <vehicle id="vehicle_75" depart="228.00" route="r_sw" departLane="best_prob" departSpeed="avg" departPos="last" insertionChecks="all"/>
  <vehicle id="vehicle_76" depart="240.00" route="r_nw" departLane="best_prob" departSpeed="avg" departPos="last" insertionChecks="all"/>
  <vehicle id="vehicle_77" depart="240.00" route="r_ew" departLane="best_prob" departSpeed="avg" departPos="last" insertionChecks="all"/>
  <vehicle id="vehicle_82" depart="240.00" route="r_en" departLane="best_prob" departSpeed="avg" departPos="last" insertionChecks="all"/>
  <vehicle id="vehicle_84" depart="240.00" route="r_es" departLane="best_prob" departSpeed="avg" departPos="last" insertionChecks="all"/>
  <vehicle id="vehicle_85" depart="240.00" route="r_se" departLane="best_prob" departSpeed="avg" departPos="last" insertionChecks="all"/>
  <vehicle id="vehicle_86" depart="240.00" route="r_sw" departLane="best_prob" departSpeed="avg" departPos="last" insertionChecks="all"/>
  <vehicle id="vehicle_78" depart="252.00" route="r_ew" departLane="best_prob" departSpeed="avg" departPos="last" insertionChecks="all"/>
  <vehicle id="vehicle_79" depart="264.00" route="r_ew" departLane="best_prob" departSpeed="avg" departPos="last" insertionChecks="all"/>
  <vehicle id="vehicle_83" depart="270.00" route="r_en" departLane="best_prob" departSpeed="avg" departPos="last" insertionChecks="all"/>
  <vehicle id="vehicle_87" depart="270.00" route="r_sw" departLane="best_prob" departSpeed="avg" departPos="last" insertionChecks="all"/>
  <vehicle id="vehicle_80" depart="276.00" route="r_ew" departLane="best_prob" departSpeed="avg" departPos="last" insertionChecks="all"/>
  <vehicle id="vehicle_81" depart="288.00" route="r_ew" departLane="best_prob" departSpeed="avg" departPos="last" insertionChecks="all"/>
  <vehicle id="vehicle_88" depart="300.00" route="r_we" departLane="best_prob" departSpeed="avg" departPos="last" insertionChecks="all"/>
  <vehicle id="vehicle_90" depart="300.00" route="r_nw" departLane="best_prob" departSpeed="avg" departPos="last" insertionChecks="all"/>
  <vehicle id="vehicle_91" depart="300.00" route="r_ne" departLane="best_prob" departSpeed="avg" departPos="last" insertionChecks="all"/>
  <vehicle id="vehicle_93" depart="300.00" route="r_ew" departLane="best_prob" departSpeed="avg" departPos="last" insertionChecks="all"/>
  <vehicle id="vehicle_98" depart="300.00" route="r_en" departLane="best_prob" departSpeed="avg" departPos="last" insertionChecks="all"/>
  <vehicle id="vehicle_100" depart="300.00" route="r_sn" departLane="best_prob" departSpeed="avg" departPos="last" insertionChecks="all"/>
  <vehicle id="vehicle_101" depart="300.00" route="r_se" departLane="best_prob" departSpeed="avg" departPos="last" insertionChecks="all"/>
  <vehicle id="vehicle_102" depart="300.00" route="r_sw" departLane="best_prob" departSpeed="avg" departPos="last" insertionChecks="all"/>
  <vehicle id="vehicle_103" depart="306.00" route="r_sw" departLane="best_prob" departSpeed="avg" departPos="last" insertionChecks="all"/>
  <vehicle id="vehicle_94" depart="312.00" route="r_ew" departLane="best_prob" departSpeed="avg" departPos="last" insertionChecks="all"/>
  <vehicle id="vehicle_104" depart="312.00" route="r_sw" departLane="best_prob" departSpeed="avg" departPos="last" insertionChecks="all"/>
  <vehicle id="vehicle_105" depart="318.00" route="r_sw" departLane="best_prob" departSpeed="avg" departPos="last" insertionChecks="all"/>
  <vehicle id="vehicle_95" depart="324.00" route="r_ew" departLane="best_prob" departSpeed="avg" departPos="last" insertionChecks="all"/>
  <vehicle id="vehicle_106" depart="324.00" route="r_sw" departLane="best_prob" departSpeed="avg" departPos="last" insertionChecks="all"/>
  <vehicle id="vehicle_89" depart="330.00" route="r_we" departLane="best_prob" departSpeed="avg" departPos="last" insertionChecks="all"/>
  <vehicle id="vehicle_92" depart="330.00" route="r_ne" departLane="best_prob" departSpeed="avg" departPos="last" insertionChecks="all"/>
  <vehicle id="vehicle_99" depart="330.00" route="r_en" departLane="best_prob" departSpeed="avg" departPos="last" insertionChecks="all"/>
  <vehicle id="vehicle_107" depart="330.00" route="r_sw" departLane="best_prob" departSpeed="avg" departPos="last" insertionChecks="all"/>
  <vehicle id="vehicle_96" depart="336.00" route="r_ew" departLane="best_prob" departSpeed="avg" departPos="last" insertionChecks="all"/>
  <vehicle id="vehicle_108" depart="336.00" route="r_sw" departLane="best_prob" departSpeed="avg" departPos="last" insertionChecks="all"/>
  <vehicle id="vehicle_109" depart="342.00" route="r_sw" departLane="best_prob" departSpeed="avg" departPos="last" insertionChecks="all"/>
  <vehicle id="vehicle_97" depart="348.00" route="r_ew" departLane="best_prob" departSpeed="avg" departPos="last" insertionChecks="all"/>
  <vehicle id="vehicle_110" depart="348.00" route="r_sw" departLane="best_prob" departSpeed="avg" departPos="last" insertionChecks="all"/>
  <vehicle id="vehicle_111" depart="354.00" route="r_sw" departLane="best_prob" departSpeed="avg" departPos="last" insertionChecks="all"/>
  <vehicle id="vehicle_112" depart="360.00" route="r_we" departLane="best_prob" departSpeed="avg" departPos="last" insertionChecks="all"/>
  <vehicle id="vehicle_113" depart="360.00" route="r_nw" departLane="best_prob" departSpeed="avg" departPos="last" insertionChecks="all"/>
  <vehicle id="vehicle_117" depart="360.00" route="r_ew" departLane="best_prob" departSpeed="avg" departPos="last" insertionChecks="all"/>
  <vehicle id="vehicle_124" depart="360.00" route="r_en" departLane="best_prob" departSpeed="avg" departPos="last" insertionChecks="all"/>
  <vehicle id="vehicle_128" depart="360.00" route="r_es" departLane="best_prob" departSpeed="avg" departPos="last" insertionChecks="all"/>
  <vehicle id="vehicle_129" depart="360.00" route="r_sn" departLane="best_prob" departSpeed="avg" departPos="last" insertionChecks="all"/>
  <vehicle id="vehicle_131" depart="360.00" route="r_se" departLane="best_prob" departSpeed="avg" departPos="last" insertionChecks="all"/>
  <vehicle id="vehicle_133" depart="360.00" route="r_sw" departLane="best_prob" departSpeed="avg" departPos="last" insertionChecks="all"/>
  <vehicle id="vehicle_118" depart="368.57" route="r_ew" departLane="best_prob" departSpeed="avg" departPos="last" insertionChecks="all"/>
  <vehicle id="vehicle_114" depart="375.00" route="r_nw" departLane="best_prob" departSpeed="avg" departPos="last" insertionChecks="all"/>
  <vehicle id="vehicle_125" depart="375.00" route="r_en" departLane="best_prob" departSpeed="avg" departPos="last" insertionChecks="all"/>
  <vehicle id="vehicle_119" depart="377.14" route="r_ew" departLane="best_prob" departSpeed="avg" departPos="last" insertionChecks="all"/>
  <vehicle id="vehicle_134" depart="380.00" route="r_sw" departLane="best_prob" departSpeed="avg" departPos="last" insertionChecks="all"/>
  <vehicle id="vehicle_120" depart="385.71" route="r_ew" departLane="best_prob" departSpeed="avg" departPos="last" insertionChecks="all"/>
  <vehicle id="vehicle_115" depart="390.00" route="r_nw" departLane="best_prob" departSpeed="avg" departPos="last" insertionChecks="all"/>
  <vehicle id="vehicle_126" depart="390.00" route="r_en" departLane="best_prob" departSpeed="avg" departPos="last" insertionChecks="all"/>
  <vehicle id="vehicle_130" depart="390.00" route="r_sn" departLane="best_prob" departSpeed="avg" departPos="last" insertionChecks="all"/>
  <vehicle id="vehicle_132" depart="390.00" route="r_se" departLane="best_prob" departSpeed="avg" departPos="last" insertionChecks="all"/>
  <vehicle id="vehicle_121" depart="394.29" route="r_ew" departLane="best_prob" departSpeed="avg" departPos="last" insertionChecks="all"/>
  <vehicle id="vehicle_135" depart="400.00" route="r_sw" departLane="best_prob" departSpeed="avg" departPos="last" insertionChecks="all"/>
  <vehicle id="vehicle_122" depart="402.86" route="r_ew" departLane="best_prob" departSpeed="avg" departPos="last" insertionChecks="all"/>
  <vehicle id="vehicle_116" depart="405.00" route="r_nw" departLane="best_prob" departSpeed="avg" departPos="last" insertionChecks="all"/>
  <vehicle id="vehicle_127" depart="405.00" route="r_en" departLane="best_prob" departSpeed="avg" departPos="last" insertionChecks="all"/>
  <vehicle id="vehicle_123" depart="411.43" route="r_ew" departLane="best_prob" departSpeed="avg" departPos="last" insertionChecks="all"/>
  <vehicle id="vehicle_136" depart="420.00" route="r_ew" departLane="best_prob" departSpeed="avg" departPos="last" insertionChecks="all"/>
  <vehicle id="vehicle_145" depart="420.00" route="r_en" departLane="best_prob" departSpeed="avg" departPos="last" insertionChecks="all"/>
  <vehicle id="vehicle_149" depart="420.00" route="r_sw" departLane="best_prob" departSpeed="avg" departPos="last" insertionChecks="all"/>
  <vehicle id="vehicle_137" depart="426.67" route="r_ew" departLane="best_prob" departSpeed="avg" departPos="last" insertionChecks="all"/>
  <vehicle id="vehicle_150" depart="426.67" route="r_sw" departLane="best_prob" departSpeed="avg" departPos="last" insertionChecks="all"/>
  <vehicle id="vehicle_138" depart="433.33" route="r_ew" departLane="best_prob" departSpeed="avg" departPos="last" insertionChecks="all"/>
  <vehicle id="vehicle_151" depart="433.33" route="r_sw" departLane="best_prob" departSpeed="avg" departPos="last" insertionChecks="all"/>
  <vehicle id="vehicle_146" depart="435.00" route="r_en" departLane="best_prob" departSpeed="avg" departPos="last" insertionChecks="all"/>
  <vehicle id="vehicle_139" depart="440.00" route="r_ew" departLane="best_prob" departSpeed="avg" departPos="last" insertionChecks="all"/>
  <vehicle id="vehicle_152" depart="440.00" route="r_sw" departLane="best_prob" departSpeed="avg" departPos="last" insertionChecks="all"/>
  <vehicle id="vehicle_140" depart="446.67" route="r_ew" departLane="best_prob" departSpeed="avg" departPos="last" insertionChecks="all"/>
  <vehicle id="vehicle_153" depart="446.67" route="r_sw" departLane="best_prob" departSpeed="avg" departPos="last" insertionChecks="all"/>
  <vehicle id="vehicle_147" depart="450.00" route="r_en" departLane="best_prob" departSpeed="avg" departPos="last" insertionChecks="all"/>
  <vehicle id="vehicle_141" depart="453.33" route="r_ew" departLane="best_prob" departSpeed="avg" departPos="last" insertionChecks="all"/>
  <vehicle id="vehicle_154" depart="453.33" route="r_sw" departLane="best_prob" departSpeed="avg" departPos="last" insertionChecks="all"/>
  <vehicle id="vehicle_142" depart="460.00" route="r_ew" departLane="best_prob" departSpeed="avg" departPos="last" insertionChecks="all"/>
  <vehicle id="vehicle_155" depart="460.00" route="r_sw" departLane="best_prob" departSpeed="avg" departPos="last" insertionChecks="all"/>
  <vehicle id="vehicle_148" depart="465.00" route="r_en" departLane="best_prob" departSpeed="avg" departPos="last" insertionChecks="all"/>
  <vehicle id="vehicle_143" depart="466.67" route="r_ew" departLane="best_prob" departSpeed="avg" departPos="last" insertionChecks="all"/>
  <vehicle id="vehicle_156" depart="466.67" route="r_sw" departLane="best_prob" departSpeed="avg" departPos="last" insertionChecks="all"/>
  <vehicle id="vehicle_144" depart="473.33" route="r_ew" departLane="best_prob" departSpeed="avg" departPos="last" insertionChecks="all"/>
  <vehicle id="vehicle_157" depart="473.33" route="r_sw" departLane="best_prob" departSpeed="avg" departPos="last" insertionChecks="all"/>
  <vehicle id="vehicle_158" depart="480.00" route="r_ew" departLane="best_prob" departSpeed="avg" departPos="last" insertionChecks="all"/>
  <vehicle id="vehicle_167" depart="480.00" route="r_en" departLane="best_prob" departSpeed="avg" departPos="last" insertionChecks="all"/>
  <vehicle id="vehicle_172" depart="480.00" route="r_sn" departLane="best_prob" departSpeed="avg" departPos="last" insertionChecks="all"/>
  <vehicle id="vehicle_174" depart="480.00" route="r_se" departLane="best_prob" departSpeed="avg" departPos="last" insertionChecks="all"/>
  <vehicle id="vehicle_175" depart="480.00" route="r_sw" departLane="best_prob" departSpeed="avg" departPos="last" insertionChecks="all"/>
  <vehicle id="vehicle_159" depart="486.67" route="r_ew" departLane="best_prob" departSpeed="avg" departPos="last" insertionChecks="all"/>
  <vehicle id="vehicle_176" depart="486.67" route="r_sw" departLane="best_prob" departSpeed="avg" departPos="last" insertionChecks="all"/>
  <vehicle id="vehicle_168" depart="492.00" route="r_en" departLane="best_prob" departSpeed="avg" departPos="last" insertionChecks="all"/>
  <vehicle id="vehicle_160" depart="493.33" route="r_ew" departLane="best_prob" departSpeed="avg" departPos="last" insertionChecks="all"/>
  <vehicle id="vehicle_177" depart="493.33" route="r_sw" departLane="best_prob" departSpeed="avg" departPos="last" insertionChecks="all"/>
  <vehicle id="vehicle_161" depart="500.00" route="r_ew" departLane="best_prob" departSpeed="avg" departPos="last" insertionChecks="all"/>
  <vehicle id="vehicle_178" depart="500.00" route="r_sw" departLane="best_prob" departSpeed="avg" departPos="last" insertionChecks="all"/>
  <vehicle id="vehicle_169" depart="504.00" route="r_en" departLane="best_prob" departSpeed="avg" departPos="last" insertionChecks="all"/>
  <vehicle id="vehicle_162" depart="506.67" route="r_ew" departLane="best_prob" departSpeed="avg" departPos="last" insertionChecks="all"/>
  <vehicle id="vehicle_179" depart="506.67" route="r_sw" departLane="best_prob" departSpeed="avg" departPos="last" insertionChecks="all"/>
  <vehicle id="vehicle_173" depart="510.00" route="r_sn" departLane="best_prob" departSpeed="avg" departPos="last" insertionChecks="all"/>
  <vehicle id="vehicle_163" depart="513.33" route="r_ew" departLane="best_prob" departSpeed="avg" departPos="last" insertionChecks="all"/>
  <vehicle id="vehicle_180" depart="513.33" route="r_sw" departLane="best_prob" departSpeed="avg" departPos="last" insertionChecks="all"/>
  <vehicle id="vehicle_170" depart="516.00" route="r_en" departLane="best_prob" departSpeed="avg" departPos="last" insertionChecks="all"/>
  <vehicle id="vehicle_164" depart="520.00" route="r_ew" departLane="best_prob" departSpeed="avg" departPos="last" insertionChecks="all"/>
  <vehicle id="vehicle_181" depart="520.00" route="r_sw" departLane="best_prob" departSpeed="avg" departPos="last" insertionChecks="all"/>
  <vehicle id="vehicle_165" depart="526.67" route="r_ew" departLane="best_prob" departSpeed="avg" departPos="last" insertionChecks="all"/>
  <vehicle id="vehicle_182" depart="526.67" route="r_sw" departLane="best_prob" departSpeed="avg" departPos="last" insertionChecks="all"/>
  <vehicle id="vehicle_171" depart="528.00" route="r_en" departLane="best_prob" departSpeed="avg" departPos="last" insertionChecks="all"/>
  <vehicle id="vehicle_166" depart="533.33" route="r_ew" departLane="best_prob" departSpeed="avg" departPos="last" insertionChecks="all"/>
  <vehicle id="vehicle_183" depart="533.33" route="r_sw" departLane="best_prob" departSpeed="avg" departPos="last" insertionChecks="all"/>
  <vehicle id="vehicle_184" depart="540.00" route="r_we" departLane="best_prob" departSpeed="avg" departPos="last" insertionChecks="all"/>
  <vehicle id="vehicle_186" depart="540.00" route="r_nw" departLane="best_prob" departSpeed="avg" departPos="last" insertionChecks="all"/>
  <vehicle id="vehicle_187" depart="540.00" route="r_ew" departLane="best_prob" departSpeed="avg" departPos="last" insertionChecks="all"/>
  <vehicle id="vehicle_192" depart="540.00" route="r_en" departLane="best_prob" departSpeed="avg" departPos="last" insertionChecks="all"/>
  <vehicle id="vehicle_194" depart="540.00" route="r_sw" departLane="best_prob" departSpeed="avg" departPos="last" insertionChecks="all"/>
  <vehicle id="vehicle_195" depart="548.57" route="r_sw" departLane="best_prob" departSpeed="avg" departPos="last" insertionChecks="all"/>
  <vehicle id="vehicle_188" depart="552.00" route="r_ew" departLane="best_prob" departSpeed="avg" departPos="last" insertionChecks="all"/>
  <vehicle id="vehicle_196" depart="557.14" route="r_sw" departLane="best_prob" departSpeed="avg" departPos="last" insertionChecks="all"/>
  <vehicle id="vehicle_189" depart="564.00" route="r_ew" departLane="best_prob" departSpeed="avg" departPos="last" insertionChecks="all"/>
  <vehicle id="vehicle_197" depart="565.71" route="r_sw" departLane="best_prob" departSpeed="avg" departPos="last" insertionChecks="all"/>
  <vehicle id="vehicle_185" depart="570.00" route="r_we" departLane="best_prob" departSpeed="avg" departPos="last" insertionChecks="all"/>
  <vehicle id="vehicle_193" depart="570.00" route="r_en" departLane="best_prob" departSpeed="avg" departPos="last" insertionChecks="all"/>
  <vehicle id="vehicle_198" depart="574.29" route="r_sw" departLane="best_prob" departSpeed="avg" departPos="last" insertionChecks="all"/>
  <vehicle id="vehicle_190" depart="576.00" route="r_ew" departLane="best_prob" departSpeed="avg" departPos="last" insertionChecks="all"/>
  <vehicle id="vehicle_199" depart="582.86" route="r_sw" departLane="best_prob" departSpeed="avg" departPos="last" insertionChecks="all"/>
  <vehicle id="vehicle_191" depart="588.00" route="r_ew" departLane="best_prob" departSpeed="avg" departPos="last" insertionChecks="all"/>
  <vehicle id="vehicle_200" depart="591.43" route="r_sw" departLane="best_prob" departSpeed="avg" departPos="last" insertionChecks="all"/>
  <vehicle id="vehicle_201" depart="600.00" route="r_nw" departLane="best_prob" departSpeed="avg" departPos="last" insertionChecks="all"/>
  <vehicle id="vehicle_205" depart="600.00" route="r_ne" departLane="best_prob" departSpeed="avg" departPos="last" insertionChecks="all"/>
  <vehicle id="vehicle_206" depart="600.00" route="r_ew" departLane="best_prob" departSpeed="avg" departPos="last" insertionChecks="all"/>
  <vehicle id="vehicle_219" depart="600.00" route="r_en" departLane="best_prob" departSpeed="avg" departPos="last" insertionChecks="all"/>
  <vehicle id="vehicle_226" depart="600.00" route="r_sn" departLane="best_prob" departSpeed="avg" departPos="last" insertionChecks="all"/>
  <vehicle id="vehicle_228" depart="600.00" route="r_se" departLane="best_prob" departSpeed="avg" departPos="last" insertionChecks="all"/>
  <vehicle id="vehicle_229" depart="600.00" route="r_sw" departLane="best_prob" departSpeed="avg" departPos="last" insertionChecks="all"/>
  <vehicle id="vehicle_207" depart="604.62" route="r_ew" departLane="best_prob" departSpeed="avg" departPos="last" insertionChecks="all"/>
  <vehicle id="vehicle_220" depart="608.57" route="r_en" departLane="best_prob" departSpeed="avg" departPos="last" insertionChecks="all"/>
  <vehicle id="vehicle_208" depart="609.23" route="r_ew" departLane="best_prob" departSpeed="avg" departPos="last" insertionChecks="all"/>