<?xml version="1.0" encoding="UTF-8"?>

<!-- scaled to 50% by traffic_amplifier.py -->

<routes xmlns:xsi="http://www.w3.org/2001/XMLSchema-instance" xsi:noNamespaceSchemaLocation="http://sumo.dlr.de/xsd/routes_file.xsd">
    <!-- Routes -->
    <route id="r_en" edges="E3 -E9 E6 E10 -E0"/>
    <route id="r_es" edges="E3 -E9 E14 E15 -E2"/>
    <route id="r_ew" edges="E3 -E9 E12 E13 -E1"/>
    <route id="r_ne" edges="E0 -E10 -E6 E9 -E3"/>
    <route id="r_ns" edges="E0 -E10 -E6 E14 E15 -E2"/>
    <route id="r_nw" edges="E0 -E10 -E6 E12 E13 -E1"/>
    <route id="r_se" edges="E2 -E15 -E14 E9 -E3"/>
    <route id="r_sn" edges="E2 -E15 -E14 E6 E10 -E0"/>
    <route id="r_sw" edges="E2 -E15 -E14 E12 E13 -E1"/>
    <route id="r_we" edges="E1 -E13 -E12 E9 -E3"/>
    <route id="r_wn" edges="E1 -E13 -E12 E6 E10 -E0"/>
    <route id="r_ws" edges="E1 -E13 -E12 E14 E15 -E2"/>
  <vehicle id="vehicle_1" depart="0.00" route="r_we" departLane="best_prob" departSpeed="avg" departPos="last" insertionChecks="all"/>
  <vehicle id="vehicle_2" depart="0.00" route="r_nw" departLane="best_prob" departSpeed="avg" departPos="last" insertionChecks="all"/>
  <vehicle id="vehicle_3" depart="0.00" route="r_ne" departLane="best_prob" departSpeed="avg" departPos="last" insertionChecks="all"/>
  <vehicle id="vehicle_4" depart="0.00" route="r_ew" departLane="best_prob" departSpeed="avg" departPos="last" insertionChecks="all"/>
  <vehicle id="vehicle_5" depart="0.00" route="r_en" departLane="best_prob" departSpeed="avg" departPos="last" insertionChecks="all"/>
  <vehicle id="vehicle_6" depart="0.00" route="r_es" departLane="best_prob" departSpeed="avg" departPos="last" insertionChecks="all"/>
  <vehicle id="vehicle_7" depart="0.00" route="r_sn" departLane="best_prob" departSpeed="avg" departPos="last" insertionChecks="all"/>
  <vehicle id="vehicle_8" depart="0.00" route="r_se" departLane="best_prob" departSpeed="avg" departPos="last" insertionChecks="all"/>
  <vehicle id="vehicle_9" depart="0.00" route="r_sw" departLane="best_prob" departSpeed="avg" departPos="last" insertionChecks="all"/>
  <vehicle id="vehicle_10" depart="30.00" route="r_sn" departLane="best_prob" departSpeed="avg" departPos="last" insertionChecks="all"/>
  <vehicle id="vehicle_11" depart="40.00" route="r_nw" departLane="best_prob" departSpeed="avg" departPos="last" insertionChecks="all"/>
  <vehicle id="vehicle_12" depart="40.00" route="r_se" departLane="best_prob" departSpeed="avg" departPos="last" insertionChecks="all"/>
  <vehicle id="vehicle_13" depart="60.00" route="r_ew" departLane="best_prob" departSpeed="avg" departPos="last" insertionChecks="all"/>
  <vehicle id="vehicle_14" depart="60.00" route="r_sn" departLane="best_prob" departSpeed="avg" departPos="last" insertionChecks="all"/>
  <vehicle id="vehicle_15" depart="60.00" route="r_sw" departLane="best_prob" departSpeed="avg" departPos="last" insertionChecks="all"/>
  <vehicle id="vehicle_16" depart="72.00" route="r_ew" departLane="best_prob" departSpeed="avg" departPos="last" insertionChecks="all"/>
  <vehicle id="vehicle_17" depart="72.00" route="r_en" departLane="best_prob" departSpeed="avg" departPos="last" insertionChecks="all"/>
  <vehicle id="vehicle_18" depart="80.00" route="r_nw" departLane="best_prob" departSpeed="avg" departPos="last" insertionChecks="all"/>
  <vehicle id="vehicle_19" depart="84.00" route="r_ew" departLane="best_prob" departSpeed="avg" departPos="last" insertionChecks="all"/>
  <vehicle id="vehicle_20" depart="90.00" route="r_se" departLane="best_prob" departSpeed="avg" departPos="last" insertionChecks="all"/>
  <vehicle id="vehicle_21" depart="96.00" route="r_ew" departLane="best_prob" departSpeed="avg" departPos="last" insertionChecks="all"/>
  <vehicle id="vehicle_22" depart="96.00" route="r_en" departLane="best_prob" departSpeed="avg" departPos="last" insertionChecks="all"/>
  <vehicle id="vehicle_23" depart="100.00" route="r_sw" departLane="best_prob" departSpeed="avg" departPos="last" insertionChecks="all"/>
  <vehicle id="vehicle_24" depart="108.00" route="r_ew" departLane="best_prob" departSpeed="avg" departPos="last" insertionChecks="all"/>
  <vehicle id="vehicle_25" depart="120.00" route="r_nw" departLane="best_prob" departSpeed="avg" departPos="last" insertionChecks="all"/>
  <vehicle id="vehicle_26" depart="120.00" route="r_ew" departLane="best_prob" departSpeed="avg" departPos="last" insertionChecks="all"/>
  <vehicle id="vehicle_27" depart="120.00" route="r_en" departLane="best_prob" departSpeed="avg" departPos="last" insertionChecks="all"/>
  <vehicle id="vehicle_28" depart="128.57" route="r_sw" departLane="best_prob" departSpeed="avg" departPos="last" insertionChecks="all"/>
  <vehicle id="vehicle_29" depart="145.71" route="r_sw" departLane="best_prob" departSpeed="avg" departPos="last" insertionChecks="all"/>
  <vehicle id="vehicle_30" depart="162.86" route="r_sw" departLane="best_prob" departSpeed="avg" departPos="last" insertionChecks="all"/>
  <vehicle id="vehicle_31" depart="180.00" route="r_ew" departLane="best_prob" departSpeed="avg" departPos="last" insertionChecks="all"/>
  <vehicle id="vehicle_32" depart="180.00" route="r_sn" departLane="best_prob" departSpeed="avg" departPos="last" insertionChecks="all"/>
  <vehicle id="vehicle_33" depart="180.00" route="r_se" departLane="best_prob" departSpeed="avg" departPos="last" insertionChecks="all"/>
  <vehicle id="vehicle_34" depart="180.00" route="r_sw" departLane="best_prob" departSpeed="avg" departPos="last" insertionChecks="all"/>
  <vehicle id="vehicle_35" depart="200.00" route="r_en" departLane="best_prob" departSpeed="avg" departPos="last" insertionChecks="all"/>
  <vehicle id="vehicle_36" depart="204.00" route="r_ew" departLane="best_prob" departSpeed="avg" departPos="last" insertionChecks="all"/>
  <vehicle id="vehicle_37" depart="204.00" route="r_sw" departLane="best_prob" departSpeed="avg" departPos="last" insertionChecks="all"/>
  <vehicle id="vehicle_38" depart="210.00" route="r_nw" departLane="best_prob" departSpeed="avg" departPos="last" insertionChecks="all"/>
  <vehicle id="vehicle_39" depart="228.00" route="r_ew" departLane="best_prob" departSpeed="avg" departPos="last" insertionChecks="all"/>
  <vehicle id="vehicle_40" depart="228.00" route="r_sw" departLane="best_prob" departSpeed="avg" departPos="last" insertionChecks="all"/>
  <vehicle id="vehicle_41" depart="240.00" route="r_en" departLane="best_prob" departSpeed="avg" departPos="last" insertionChecks="all"/>
  <vehicle id="vehicle_42" depart="240.00" route="r_se" departLane="best_prob" departSpeed="avg" departPos="last" insertionChecks="all"/>
  <vehicle id="vehicle_43" depart="252.00" route="r_ew" departLane="best_prob" departSpeed="avg" departPos="last" insertionChecks="all"/>
  <vehicle id="vehicle_44" depart="270.00" route="r_sw" departLane="best_prob" departSpeed="avg" departPos="last" insertionChecks="all"/>
  <vehicle id="vehicle_45" depart="276.00" route="r_ew" departLane="best_prob" departSpeed="avg" departPos="last" insertionChecks="all"/>
  <vehicle id="vehicle_46" depart="300.00" route="r_nw" departLane="best_prob" departSpeed="avg" departPos="last" insertionChecks="all"/>
  <vehicle id="vehicle_47" depart="300.00" route="r_ne" departLane="best_prob" departSpeed="avg" departPos="last" insertionChecks="all"/>
  <vehicle id="vehicle_48" depart="300.00" route="r_ew" departLane="best_prob" departSpeed="avg" departPos="last" insertionChecks="all"/>
  <vehicle id="vehicle_49" depart="300.00" route="r_en" departLane="best_prob" departSpeed="avg" departPos="last" insertionChecks="all"/>
  <vehicle id="vehicle_50" depart="300.00" route="r_sn" departLane="best_prob" departSpeed="avg" departPos="last" insertionChecks="all"/>
  <vehicle id="vehicle_51" depart="306.00" route="r_sw" departLane="best_prob" departSpeed="avg" departPos="last" insertionChecks="all"/>
  <vehicle id="vehicle_52" depart="318.00" route="r_sw" departLane="best_prob" departSpeed="avg" departPos="last" insertionChecks="all"/>
  <vehicle id="vehicle_53" depart="324.00" route="r_ew" departLane="best_prob" departSpeed="avg" departPos="last" insertionChecks="all"/>
  <vehicle id="vehicle_54" depart="330.00" route="r_we" departLane="best_prob" departSpeed="avg" departPos="last" insertionChecks="all"/>
  <vehicle id="vehicle_55" depart="330.00" route="r_sw" departLane="best_prob" departSpeed="avg" departPos="last" insertionChecks="all"/>
  <vehicle id="vehicle_56" depart="342.00" route="r_sw" departLane="best_prob" departSpeed="avg" departPos="last" insertionChecks="all"/>
  <vehicle id="vehicle_57" depart="348.00" route="r_ew" departLane="best_prob" departSpeed="avg" departPos="last" insertionChecks="all"/>
  <vehicle id="vehicle_58" depart="354.00" route="r_sw" departLane="best_prob" departSpeed="avg" departPos="last" insertionChecks="all"/>
  <vehicle id="vehicle_59" depart="360.00" route="r_en" departLane="best_prob" departSpeed="avg" departPos="last" insertionChecks="all"/>
  <vehicle id="vehicle_60" depart="360.00" route="r_es" departLane="best_prob" departSpeed="avg" departPos="last" insertionChecks="all"/>
  <vehicle id="vehicle_61" depart="360.00" route="r_se" departLane="best_prob" departSpeed="avg" departPos="last" insertionChecks="all"/>
  <vehicle id="vehicle_62" depart="368.57" route="r_ew" departLane="best_prob" departSpeed="avg" departPos="last" insertionChecks="all"/>
  <vehicle id="vehicle_63" depart="375.00" route="r_nw" departLane="best_prob" departSpeed="avg" departPos="last" insertionChecks="all"/>
  <vehicle id="vehicle_64" depart="380.00" route="r_sw" departLane="best_prob" departSpeed="avg" departPos="last" insertionChecks="all"/>
  <vehicle id="vehicle_65" depart="385.71" route="r_ew" departLane="best_prob" departSpeed="avg" departPos="last" insertionChecks="all"/>
  <vehicle id="vehicle_66" depart="390.00" route="r_en" departLane="best_prob" departSpeed="avg" departPos="last" insertionChecks="all"/>
  <vehicle id="vehicle_67" depart="390.00" route="r_sn" departLane="best_prob" departSpeed="avg" departPos="last" insertionChecks="all"/>
  <vehicle id="vehicle_68" depart="402.86" route="r_ew" departLane="best_prob" departSpeed="avg" departPos="last" insertionChecks="all"/>
  <vehicle id="vehicle_69" depart="405.00" route="r_nw" departLane="best_prob" departSpeed="avg" departPos="last" insertionChecks="all"/>
  <vehicle id="vehicle_70" depart="420.00" route="r_ew" departLane="best_prob" departSpeed="avg" departPos="last" insertionChecks="all"/>
  <vehicle id="vehicle_71" depart="420.00" route="r_en" departLane="best_prob" departSpeed="avg" departPos="last" insertionChecks="all"/>
  <vehicle id="vehicle_72" depart="420.00" route="r_sw" departLane="best_prob" departSpeed="avg" departPos="last" insertionChecks="all"/>
  <vehicle id="vehicle_73" depart="433.33" route="r_ew" departLane="best_prob" departSpeed="avg" departPos="last" insertionChecks="all"/>
  <vehicle id="vehicle_74" depart="433.33" route="r_sw" departLane="best_prob" departSpeed="avg" departPos="last" insertionChecks="all"/>
  <vehicle id="vehicle_75" depart="446.67" route="r_ew" departLane="best_prob" departSpeed="avg" departPos="last" insertionChecks="all"/>
  <vehicle id="vehicle_76" depart="446.67" route="r_sw" departLane="best_prob" departSpeed="avg" departPos="last" insertionChecks="all"/>
  <vehicle id="vehicle_77" depart="450.00" route="r_en" departLane="best_prob" departSpeed="avg" departPos="last" insertionChecks="all"/>
  <vehicle id="vehicle_78" depart="460.00" route="r_ew" departLane="best_prob" departSpeed="avg" departPos="last" insertionChecks="all"/>
  <vehicle id="vehicle_79" depart="460.00" route="r_sw" departLane="best_prob" departSpeed="avg" departPos="last" insertionChecks="all"/>
  <vehicle id="vehicle_80" depart="473.33" route="r_ew" departLane="best_prob" departSpeed="avg" departPos="last" insertionChecks="all"/>
  <vehicle id="vehicle_81" depart="473.33" route="r_sw" departLane="best_prob" departSpeed="avg" departPos="last" insertionChecks="all"/>
  <vehicle id="vehicle_82" depart="480.00" route="r_en" departLane="best_prob" departSpeed="avg" departPos="last" insertionChecks="all"/>
  <vehicle id="vehicle_83" depart="480.00" route="r_se" departLane="best_prob" departSpeed="avg" departPos="last" insertionChecks="all"/>
  <vehicle id="vehicle_84" depart="486.67" route="r_ew" departLane="best_prob" departSpeed="avg" departPos="last" insertionChecks="all"/>
  <vehicle id="vehicle_85" depart="486.67" route="r_sw" departLane="best_prob" departSpeed="avg" departPos="last" insertionChecks="all"/>
  <vehicle id="vehicle_86" depart="500.00" route="r_ew" departLane="best_prob" departSpeed="avg" departPos="last" insertionChecks="all"/>
  <vehicle id="vehicle_87" depart="500.00" route="r_sw" departLane="best_prob" departSpeed="avg" departPos="last" insertionChecks="all"/>
  <vehicle id="vehicle_88" depart="504.00" route="r_en" departLane="best_prob" departSpeed="avg" departPos="last" insertionChecks="all"/>
  <vehicle id="vehicle_89" depart="510.00" route="r_sn" departLane="best_prob" departSpeed="avg" departPos="last" insertionChecks="all"/>
  <vehicle id="vehicle_90" depart="513.33" route="r_ew" departLane="best_prob" departSpeed="avg" departPos="last" insertionChecks="all"/>
  <vehicle id="vehicle_91" depart="513.33" route="r_sw" departLane="best_prob" departSpeed="avg" departPos="last" insertionChecks="all"/>
  <vehicle id="vehicle_92" depart="526.67" route="r_ew" departLane="best_prob" departSpeed="avg" departPos="last" insertionChecks="all"/>
  <vehicle id="vehicle_93" depart="526.67" route="r_sw" departLane="best_prob" departSpeed="avg" departPos="last" insertionChecks="all"/>
  <vehicle id="vehicle_94" depart="528.00" route="r_en" departLane="best_prob" departSpeed="avg" departPos="last" insertionChecks="all"/>
  <vehicle id="vehicle_95" depart="540.00" route="r_we" departLane="best_prob" departSpeed="avg" departPos="last" insertionChecks="all"/>
  <vehicle id="vehicle_96" depart="540.00" route="r_ew" departLane="best_prob" departSpeed="avg" departPos="last" insertionChecks="all"/>
  <vehicle id="vehicle_97" depart="540.00" route="r_sw" departLane="best_prob" departSpeed="avg" departPos="last" insertionChecks="all"/>
  <vehicle id="vehicle_98" depart="557.14" route="r_sw" departLane="best_prob" departSpeed="avg" departPos="last" insertionChecks="all"/>
  <vehicle id="vehicle_99" depart="564.00" route="r_ew" departLane="best_prob" departSpeed="avg" departPos="last" insertionChecks="all"/>
  <vehicle id="vehicle_100" depart="570.00" route="r_en" departLane="best_prob" departSpeed="avg" departPos="last" insertionChecks="all"/>
  <vehicle id="vehicle_101" depart="574.29" route="r_sw" departLane="best_prob" departSpeed="avg" departPos="last" insertionChecks="all"/>
  <vehicle id="vehicle_102" depart="588.00" route="r_ew" departLane="best_prob" departSpeed="avg" departPos="last" insertionChecks="all"/>
  <vehicle id="vehicle_103" depart="591.43" route="r_sw" departLane="best_prob" departSpeed="avg" departPos="last" insertionChecks="all"/>
  <vehicle id="vehicle_104" depart="600.00" route="r_nw" departLane="best_prob" departSpeed="avg" departPos="last" insertionChecks="all"/>
  <vehicle id="vehicle_105" depart="600.00" route="r_ne" departLane="best_prob" departSpeed="avg" departPos="last" insertionChecks="all"/>
  <vehicle id="vehicle_106" depart="604.62" route="r_ew" departLane="best_prob" departSpeed="avg" departPos="last" insertionChecks="all"/>
  <vehicle id="vehicle_107" depart="608.57" route="r_en" departLane="best_prob" departSpeed="avg" departPos="last" insertionChecks="all"/>
  <vehicle id="vehicle_108" depart="613.85" route="r_ew" departLane="best_prob" departSpeed="avg" departPos="last" insertionChecks="all"/>
  <vehicle id="vehicle_109" depart="620.00" route="r_sw" departLane="best_prob" departSpeed="avg" departPos="last" insertionChecks="all"/>
  <vehicle id="vehicle_110" depart="623.08" route="r_ew" departLane="best_prob" departSpeed="avg" departPos="last" insertionChecks="all"/>
  <vehicle id="vehicle_111" depart="625.71" route="r_en" departLane="best_prob" departSpeed="avg" departPos="last" insertionChecks="all"/>
  <vehicle id="vehicle_112" depart="630.00" route="r_nw" departLane="best_prob" departSpeed="avg" departPos="last" insertionChecks="all"/>
  <vehicle id="vehicle_113" depart="630.00" route="r_sn" departLane="best_prob" departSpeed="avg" departPos="last" insertionChecks="all"/>
  <vehicle id="vehicle_114" depart="632.31" route="r_ew" departLane="best_prob" departSpeed="avg" departPos="last" insertionChecks="all"/>
  <vehicle id="vehicle_115" depart="641.54" route="r_ew" departLane="best_prob" departSpeed="avg" departPos="last" insertionChecks="all"/>
  <vehicle id="vehicle_116" depart="642.86" route="r_en" departLane="best_prob" departSpeed="avg" departPos="last" insertionChecks="all"/>
  <vehicle id="vehicle_117" depart="650.77" route="r_ew" departLane="best_prob" departSpeed="avg" departPos="last" insertionChecks="all"/>
  <vehicle id="vehicle_118" depart="660.00" route="r_we" departLane="best_prob" departSpeed="avg" departPos="last" insertionChecks="all"/>
  <vehicle id="vehicle_119" depart="660.00" route="r_nw" departLane="best_prob" departSpeed="avg" departPos="last" insertionChecks="all"/>
  <vehicle id="vehicle_120" depart="660.00" route="r_ew" departLane="best_prob" departSpeed="avg" departPos="last" insertionChecks="all"/>
  <vehicle id="vehicle_121" depart="660.00" route="r_en" departLane="best_prob" departSpeed="avg" departPos="last" insertionChecks="all"/>
  <vehicle id="vehicle_122" depart="660.00" route="r_se" departLane="best_prob" departSpeed="avg" departPos="last" insertionChecks="all"/>
  <vehicle id="vehicle_123" depart="660.00" route="r_sw" departLane="best_prob" departSpeed="avg" departPos="last" insertionChecks="all"/>
  <vehicle id="vehicle_124" depart="677.14" route="r_ew" departLane="best_prob" departSpeed="avg" departPos="last" insertionChecks="all"/>
  <vehicle id="vehicle_125" depart="677.14" route="r_sw" departLane="best_prob" departSpeed="avg" departPos="last" insertionChecks="all"/>
  <vehicle id="vehicle_126" depart="690.00" route="r_en" departLane="best_prob" departSpeed="avg" departPos="last" insertionChecks="all"/>
  <vehicle id="vehicle_127" depart="694.29" route="r_ew" departLane="best_prob" departSpeed="avg" departPos="last" insertionChecks="all"/>
  <vehicle id="vehicle_128" depart="694.29" route="r_sw" departLane="best_prob" departSpeed="avg" departPos="last" insertionChecks="all"/>
  <vehicle id="vehicle_129" depart="711.43" route="r_ew" departLane="best_prob" departSpeed="avg" departPos="last" insertionChecks="all"/>
  <vehicle id="vehicle_130" depart="711.43" route="r_sw" departLane="best_prob" departSpeed="avg" departPos="last" insertionChecks="all"/>
  <vehicle id="vehicle_131" depart="720.00" route="r_en" departLane="best_prob" departSpeed="avg" departPos="last" insertionChecks="all"/>
  <vehicle id="vehicle_132" depart="720.00" route="r_sn" departLane="best_prob" departSpeed="avg" departPos="last" insertionChecks="all"/>
  <vehicle id="vehicle_133" depart="726.67" route="r_ew" departLane="best_prob" departSpeed="avg" departPos="last" insertionChecks="all"/>
  <vehicle id="vehicle_134" depart="728.57" route="r_sw" departLane="best_prob" departSpeed="avg" departPos="last" insertionChecks="all"/>
  <vehicle id="vehicle_135" depart="740.00" route="r_ew" departLane="best_prob" departSpeed="avg" departPos="last" insertionChecks="all"/>
  <vehicle id="vehicle_136" depart="740.00" route="r_se" departLane="best_prob" departSpeed="avg" departPos="last" insertionChecks="all"/>
  <vehicle id="vehicle_137" depart="745.71" route="r_sw" departLane="best_prob" departSpeed="avg" departPos="last" insertionChecks="all"/>
  <vehicle id="vehicle_138" depart="750.00" route="r_nw" departLane="best_prob" departSpeed="avg" departPos="last" insertionChecks="all"/>
  <vehicle id="vehicle_139" depart="750.00" route="r_en" departLane="best_prob" departSpeed="avg" departPos="last" insertionChecks="all"/>
  <vehicle id="vehicle_140" depart="753.33" route="r_ew" departLane="best_prob" departSpeed="avg" departPos="last" insertionChecks="all"/>
  <vehicle id="vehicle_141" depart="762.86" route="r_sw" departLane="best_prob" departSpeed="avg" departPos="last" insertionChecks="all"/>
  <vehicle id="vehicle_142" depart="766.67" route="r_ew" departLane="best_prob" departSpeed="avg" departPos="last" insertionChecks="all"/>
  <vehicle id="vehicle_143" depart="780.00" route="r_ew" departLane="best_prob" departSpeed="avg" departPos="last" insertionChecks="all"/>
  <vehicle id="vehicle_144" depart="780.00" route="r_en" departLane="best_prob" departSpeed="avg" departPos="last" insertionChecks="all"/>
  <vehicle id="vehicle_145" depart="780.00" route="r_sn" departLane="best_prob" departSpeed="avg" departPos="last" insertionChecks="all"/>
  <vehicle id="vehicle_146" depart="780.00" route="r_se" departLane="best_prob" departSpeed="avg" departPos="last" insertionChecks="all"/>
  <vehicle id="vehicle_147" depart="780.00" route="r_sw" departLane="best_prob" departSpeed="avg" departPos="last" insertionChecks="all"/>
  <vehicle id="vehicle_148" depart="790.00" route="r_nw" departLane="best_prob" departSpeed="avg" departPos="last" insertionChecks="all"/>
  <vehicle id="vehicle_149" depart="810.00" route="r_nw" departLane="best_prob" departSpeed="avg" departPos="last" insertionChecks="all"/>
  <vehicle id="vehicle_150" depart="810.00" route="r_sw" departLane="best_prob" departSpeed="avg" departPos="last" insertionChecks="all"/>
  <vehicle id="vehicle_151" depart="820.00" route="r_se" departLane="best_prob" departSpeed="avg" departPos="last" insertionChecks="all"/>
  <vehicle id="vehicle_152" depart="830.00" route="r_nw" departLane="best_prob" departSpeed="avg" departPos="last" insertionChecks="all"/>
  <vehicle id="vehicle_153" depart="840.00" route="r_we" departLane="best_prob" departSpeed="avg" departPos="last" insertionChecks="all"/>
  <vehicle id="vehicle_154" depart="840.00" route="r_ew" departLane="best_prob" departSpeed="avg" departPos="last" insertionChecks="all"/>
  <vehicle id="vehicle_155" depart="840.00" route="r_sn" departLane="best_prob" departSpeed="avg" departPos="last" insertionChecks="all"/>
  <vehicle id="vehicle_156" depart="840.00" route="r_sw" departLane="best_prob" departSpeed="avg" departPos="last" insertionChecks="all"/>
  <vehicle id="vehicle_157" depart="840.00" route="r_ws" departLane="best_prob" departSpeed="avg" departPos="last" insertionChecks="all"/>
  <vehicle id="vehicle_158" depart="860.00" route="r_en" departLane="best_prob" departSpeed="avg" departPos="last" insertionChecks="all"/>
  <vehicle id="vehicle_159" depart="860.00" route="r_sw" departLane="best_prob" departSpeed="avg" departPos="last" insertionChecks="all"/>
  <vehicle id="vehicle_160" depart="864.00" route="r_we" departLane="best_prob" departSpeed="avg" departPos="last" insertionChecks="all"/>
  <vehicle id="vehicle_161" depart="864.00" route="r_ew" departLane="best_prob" departSpeed="avg" departPos="last" insertionChecks="all"/>
  <vehicle id="vehicle_162" depart="880.00" route="r_sw" departLane="best_prob" departSpeed="avg" departPos="last" insertionChecks="all"/>
  <vehicle id="vehicle_163" depart="888.00" route="r_we" departLane="best_prob" departSpeed="avg" departPos="last" insertionChecks="all"/>
  <vehicle id="vehicle_164" depart="888.00" route="r_ew" departLane="best_prob" departSpeed="avg" departPos="last" insertionChecks="all"/>
  <vehicle id="vehicle_165" depart="900.00" route="r_en" departLane="best_prob" departSpeed="avg" departPos="last" insertionChecks="all"/>
  <vehicle id="vehicle_166" depart="900.00" route="r_se" departLane="best_prob" departSpeed="avg" departPos="last" insertionChecks="all"/>
  <vehicle id="vehicle_167" depart="900.00" route="r_sw" departLane="best_prob" departSpeed="avg" departPos="last" insertionChecks="all"/>
  <vehicle id="vehicle_168" depart="910.00" route="r_ew" departLane="best_prob" departSpeed="avg" departPos="last" insertionChecks="all"/>
  <vehicle id="vehicle_169" depart="930.00" route="r_ew" departLane="best_prob" departSpeed="avg" departPos="last" insertionChecks="all"/>
  <vehicle id="vehicle_170" depart="930.00" route="r_sn" departLane="best_prob" departSpeed="avg" departPos="last" insertionChecks="all"/>
  <vehicle id="vehicle_171" depart="940.00" route="r_en" departLane="best_prob" departSpeed="avg" departPos="last" insertionChecks="all"/>
  <vehicle id="vehicle_172" depart="940.00" route="r_se" departLane="best_prob" departSpeed="avg" departPos="last" insertionChecks="all"/>
  <vehicle id="vehicle_173" depart="940.00" route="r_sw" departLane="best_prob" departSpeed="avg" departPos="last" insertionChecks="all"/>
  <vehicle id="vehicle_174" depart="950.00" route="r_ew" departLane="best_prob" departSpeed="avg" departPos="last" insertionChecks="all"/>
  <vehicle id="vehicle_175" depart="960.00" route="r_ne" departLane="best_prob" departSpeed="avg" departPos="last" insertionChecks="all"/>
  <vehicle id="vehicle_176" depart="960.00" route="r_es" departLane="best_prob" departSpeed="avg" departPos="last" insertionChecks="all"/>
  <vehicle id="vehicle_177" depart="967.50" route="r_sw" departLane="best_prob" departSpeed="avg" departPos="last" insertionChecks="all"/>
  <vehicle id="vehicle_178" depart="972.00" route="r_ew" departLane="best_prob" departSpeed="avg" departPos="last" insertionChecks="all"/>
  <vehicle id="vehicle_179" depart="980.00" route="r_nw" departLane="best_prob" departSpeed="avg" departPos="last" insertionChecks="all"/>
  <vehicle id="vehicle_180" depart="980.00" route="r_en" departLane="best_prob" departSpeed="avg" departPos="last" insertionChecks="all"/>
  <vehicle id="vehicle_181" depart="982.50" route="r_sw" departLane="best_prob" departSpeed="avg" departPos="last" insertionChecks="all"/>
  <vehicle id="vehicle_182" depart="990.00" route="r_sn" departLane="best_prob" departSpeed="avg" departPos="last" insertionChecks="all"/>
  <vehicle id="vehicle_183" depart="996.00" route="r_ew" departLane="best_prob" departSpeed="avg" departPos="last" insertionChecks="all"/>
  <vehicle id="vehicle_184" depart="997.50" route="r_sw" departLane="best_prob" departSpeed="avg" departPos="last" insertionChecks="all"/>
  <vehicle id="vehicle_185" depart="1000.00" route="r_nw" departLane="best_prob" departSpeed="avg" departPos="last" insertionChecks="all"/>
  <vehicle id="vehicle_186" depart="1012.50" route="r_sw" departLane="best_prob" departSpeed="avg" departPos="last" insertionChecks="all"/>
  <vehicle id="vehicle_187" depart="1020.00" route="r_we" departLane="best_prob" departSpeed="avg" departPos="last" insertionChecks="all"/>
  <vehicle id="vehicle_188" depart="1020.00" route="r_ew" departLane="best_prob" departSpeed="avg" departPos="last" insertionChecks="all"/>
  <vehicle id="vehicle_189" depart="1020.00" route="r_en" departLane="best_prob" departSpeed="avg" departPos="last" insertionChecks="all"/>
  <vehicle id="vehicle_190" depart="1020.00" route="r_se" departLane="best_prob" departSpeed="avg" departPos="last" insertionChecks="all"/>
  <vehicle id="vehicle_191" depart="1030.00" route="r_sw" departLane="best_prob" departSpeed="avg" departPos="last" insertionChecks="all"/>
  <vehicle id="vehicle_192" depart="1050.00" route="r_sw" departLane="best_prob" departSpeed="avg" departPos="last" insertionChecks="all"/>
  <vehicle id="vehicle_193" depart="1060.00" route="r_ew" departLane="best_prob" departSpeed="avg" departPos="last" insertionChecks="all"/>
  <vehicle id="vehicle_194" depart="1070.00" route="r_sw" departLane="best_prob" departSpeed="avg" departPos="last" insertionChecks="all"/>
  <vehicle id="vehicle_195" depart="1080.00" route="r_nw" departLane="best_prob" departSpeed="avg" departPos="last" insertionChecks="all"/>
  <vehicle id="vehicle_196" depart="1080.00" route="r_sn" departLane="best_prob" departSpeed="avg" departPos="last" insertionChecks="all"/>
  <vehicle id="vehicle_197" depart="1092.00" route="r_ew" departLane="best_prob" departSpeed="avg" departPos="last" insertionChecks="all"/>
  <vehicle id="vehicle_198" depart="1092.00" route="r_sw" departLane="best_prob" departSpeed="avg" departPos="last" insertionChecks="all"/>
  <vehicle id="vehicle_199" depart="1100.00" route="r_en" departLane="best_prob" departSpeed="avg" departPos="last" insertionChecks="all"/>
  <vehicle id="vehicle_200" depart="1116.00" route="r_ew" departLane="best_prob" departSpeed="avg" departPos="last" insertionChecks="all"/>
  <vehicle id="vehicle_201" depart="1116.00" route="r_sw" departLane="best_prob" departSpeed="avg" departPos="last" insertionChecks="all"/>
  <vehicle id="vehicle_202" depart="1120.00" route="r_nw" departLane="best_prob" departSpeed="avg" departPos="last" insertionChecks="all"/>
  <vehicle id="vehicle_203" depart="1140.00" route="r_ne" departLane="best_prob" departSpeed="avg" departPos="last" insertionChecks="all"/>
  <vehicle id="vehicle_204" depart="1140.00" route="r_ew" departLane="best_prob" departSpeed="avg" departPos="last" insertionChecks="all"/>
  <vehicle id="vehicle_205" depart="1140.00" route="r_en" departLane="best_prob" departSpeed="avg" departPos="last" insertionChecks="all"/>
  <vehicle id="vehicle_206" depart="1140.00" route="r_se" departLane="best_prob" departSpeed="avg" departPos="last" insertionChecks="all"/>
  <vehicle id="vehicle_207" depart="1140.00" route="r_sw" departLane="best_prob" departSpeed="avg" departPos="last" insertionChecks="all"/>
  <vehicle id="vehicle_208" depart="1160.00" route="r_nw" departLane="best_prob" departSpeed="avg" departPos="last" insertionChecks="all"/>
  <vehicle id="vehicle_209" depart="1160.00" route="r_sn" departLane="best_prob" departSpeed="avg" departPos="last" insertionChecks="all"/>
  <vehicle id="vehicle_210" depart="1164.00" route="r_ew" departLane="best_prob" departSpeed="avg" departPos="last" insertionChecks="all"/>