<?xml version="1.0" encoding="UTF-8"?>

<!-- generated on 2026-01-30 21:00:08 by Eclipse SUMO netedit Version 1.24.0
-->

<routes xmlns:xsi="http://www.w3.org/2001/XMLSchema-instance" xsi:noNamespaceSchemaLocation="http://sumo.dlr.de/xsd/routes_file.xsd">
    <!-- Routes -->
    <vType id="tram" vClass="tram" color="blue"/>
    <route id="r_en" edges="E21 E13 E3 E9 E2.10"/>
    <route id="r_es" edges="E21 E13 E3 E3.82 E5 E5.12"/>
    <route id="r_ew" edges="E21 E13 E3 E3.82 -E0 -E14 -E15 -E22"/>
    <route id="r_ne" edges="E20 E12 E11 E1 -E3 -E13 -E21"/>
    <route id="r_ns" edges="E20 E12 E11 E1 E5 E5.12"/>
    <route id="r_nw" edges="E20 E12 E11 E1 -E0 -E14 -E15 -E22"/>
    <route id="r_se" edges="E23 E16 E8 -E3 -E13 -E21"/>
    <route id="r_sn" edges="E23 E16 E8 E2 E2.10"/>
    <route id="r_sw" edges="E23 E16 E8 -E0 -E14 -E15 -E22"/>
    <route id="r_tns" edges="-E7 -E6"/>
    <route id="r_tsn" edges="E6 E7"/>
    <route id="r_we" edges="E22 E15 E14 E0 E0.61 -E3 -E13 -E21"/>
    <route id="r_wn" edges="E22 E15 E14 E0 E0.61 E2 E2.10"/>
    <route id="r_ws" edges="E22 E15 E14 E0 E10 E5.12"/>
       <vehicle id="vehicle_1" depart="0.00" route="r_we" departLane="best_prob" departSpeed="avg" departPos="last" insertionChecks="none"/>
  <vehicle id="vehicle_2" depart="0.00" route="r_ws" departLane="best_prob" departSpeed="avg" departPos="last" insertionChecks="none"/>
  <vehicle id="vehicle_8" depart="0.00" route="r_we" departLane="best_prob" departSpeed="avg" departPos="last" insertionChecks="none"/>
  <vehicle id="vehicle_13" depart="0.00" route="r_wn" departLane="best_prob" departSpeed="avg" departPos="last" insertionChecks="none"/>
  <vehicle id="vehicle_14" depart="0.00" route="r_wn" departLane="best_prob" departSpeed="avg" departPos="last" insertionChecks="none"/>
  <vehicle id="vehicle_17" depart="0.00" route="r_ns" departLane="best_prob" departSpeed="avg" departPos="last" insertionChecks="none"/>
  <vehicle id="vehicle_18" depart="0.00" route="r_ns" departLane="best_prob" departSpeed="avg" departPos="last" insertionChecks="none"/>
  <vehicle id="vehicle_30" depart="0.00" route="r_ne" departLane="best_prob" departSpeed="avg" departPos="last" insertionChecks="none"/>
  <vehicle id="vehicle_39" depart="0.00" route="r_sn" departLane="best_prob" departSpeed="avg" departPos="last" insertionChecks="none"/>
  <vehicle id="vehicle_47" depart="0.00" route="r_se" departLane="best_prob" departSpeed="avg" departPos="last" insertionChecks="none"/>
  <vehicle id="vehicle_19" depart="5.00" route="r_ns" departLane="best_prob" departSpeed="avg" departPos="last" insertionChecks="none"/>
  <vehicle id="vehicle_31" depart="6.67" route="r_ne" departLane="best_prob" departSpeed="avg" departPos="last" insertionChecks="none"/>
  <vehicle id="vehicle_40" depart="7.50" route="r_sn" departLane="best_prob" departSpeed="avg" departPos="last" insertionChecks="none"/>
  <vehicle id="vehicle_3" depart="10.00" route="r_ws" departLane="best_prob" departSpeed="avg" departPos="last" insertionChecks="none"/>
  <vehicle id="vehicle_20" depart="10.00" route="r_ns" departLane="best_prob" departSpeed="avg" departPos="last" insertionChecks="none"/>
  <vehicle id="vehicle_9" depart="12.00" route="r_we" departLane="best_prob" departSpeed="avg" departPos="last" insertionChecks="none"/>
  <vehicle id="vehicle_32" depart="13.33" route="r_ne" departLane="best_prob" departSpeed="avg" departPos="last" insertionChecks="none"/>
  <vehicle id="vehicle_21" depart="15.00" route="r_ns" departLane="best_prob" departSpeed="avg" departPos="last" insertionChecks="none"/>
  <vehicle id="vehicle_41" depart="15.00" route="r_sn" departLane="best_prob" departSpeed="avg" departPos="last" insertionChecks="none"/>
  <vehicle id="vehicle_48" depart="15.00" route="r_se" departLane="best_prob" departSpeed="avg" departPos="last" insertionChecks="none"/>
  <vehicle id="vehicle_4" depart="20.00" route="r_ws" departLane="best_prob" departSpeed="avg" departPos="last" insertionChecks="none"/>
  <vehicle id="vehicle_15" depart="20.00" route="r_wn" departLane="best_prob" departSpeed="avg" departPos="last" insertionChecks="none"/>
  <vehicle id="vehicle_22" depart="20.00" route="r_ns" departLane="best_prob" departSpeed="avg" departPos="last" insertionChecks="none"/>
  <vehicle id="vehicle_33" depart="20.00" route="r_ne" departLane="best_prob" departSpeed="avg" departPos="last" insertionChecks="none"/>
  <vehicle id="vehicle_42" depart="22.50" route="r_sn" departLane="best_prob" departSpeed="avg" departPos="last" insertionChecks="none"/>
  <vehicle id="vehicle_10" depart="24.00" route="r_we" departLane="best_prob" departSpeed="avg" departPos="last" insertionChecks="none"/>
  <vehicle id="vehicle_23" depart="25.00" route="r_ns" departLane="best_prob" departSpeed="avg" departPos="last" insertionChecks="none"/>
  <vehicle id="vehicle_34" depart="26.67" route="r_ne" departLane="best_prob" departSpeed="avg" departPos="last" insertionChecks="none"/>
  <vehicle id="vehicle_5" depart="30.00" route="r_ws" departLane="best_prob" departSpeed="avg" departPos="last" insertionChecks="none"/>
  <vehicle id="vehicle_24" depart="30.00" route="r_ns" departLane="best_prob" departSpeed="avg" departPos="last" insertionChecks="none"/>
  <vehicle id="vehicle_43" depart="30.00" route="r_sn" departLane="best_prob" departSpeed="avg" departPos="last" insertionChecks="none"/>
  <vehicle id="vehicle_49" depart="30.00" route="r_se" departLane="best_prob" departSpeed="avg" departPos="last" insertionChecks="none"/>
  <vehicle id="vehicle_35" depart="33.33" route="r_ne" departLane="best_prob" departSpeed="avg" departPos="last" insertionChecks="none"/>
  <vehicle id="vehicle_25" depart="35.00" route="r_ns" departLane="best_prob" departSpeed="avg" departPos="last" insertionChecks="none"/>
  <vehicle id="vehicle_11" depart="36.00" route="r_we" departLane="best_prob" departSpeed="avg" departPos="last" insertionChecks="none"/>
  <vehicle id="vehicle_44" depart="37.50" route="r_sn" departLane="best_prob" departSpeed="avg" departPos="last" insertionChecks="none"/>
  <vehicle id="vehicle_6" depart="40.00" route="r_ws" departLane="best_prob" departSpeed="avg" departPos="last" insertionChecks="none"/>
  <vehicle id="vehicle_16" depart="40.00" route="r_wn" departLane="best_prob" departSpeed="avg" departPos="last" insertionChecks="none"/>
  <vehicle id="vehicle_26" depart="40.00" route="r_ns" departLane="best_prob" departSpeed="avg" departPos="last" insertionChecks="none"/>
  <vehicle id="vehicle_36" depart="40.00" route="r_ne" departLane="best_prob" departSpeed="avg" departPos="last" insertionChecks="none"/>
  <vehicle id="vehicle_27" depart="45.00" route="r_ns" departLane="best_prob" departSpeed="avg" departPos="last" insertionChecks="none"/>
  <vehicle id="vehicle_45" depart="45.00" route="r_sn" departLane="best_prob" departSpeed="avg" departPos="last" insertionChecks="none"/>
  <vehicle id="vehicle_50" depart="45.00" route="r_se" departLane="best_prob" departSpeed="avg" departPos="last" insertionChecks="none"/>
  <vehicle id="vehicle_37" depart="46.67" route="r_ne" departLane="best_prob" departSpeed="avg" departPos="last" insertionChecks="none"/>
  <vehicle id="vehicle_12" depart="48.00" route="r_we" departLane="best_prob" departSpeed="avg" departPos="last" insertionChecks="none"/>
  <vehicle id="vehicle_7" depart="50.00" route="r_ws" departLane="best_prob" departSpeed="avg" departPos="last" insertionChecks="none"/>
  <vehicle id="vehicle_28" depart="50.00" route="r_ns" departLane="best_prob" departSpeed="avg" departPos="last" insertionChecks="none"/>
  <vehicle id="vehicle_46" depart="52.50" route="r_sn" departLane="best_prob" departSpeed="avg" departPos="last" insertionChecks="none"/>
  <vehicle id="vehicle_38" depart="53.33" route="r_ne" departLane="best_prob" departSpeed="avg" departPos="last" insertionChecks="none"/>
  <vehicle id="vehicle_29" depart="55.00" route="r_ns" departLane="best_prob" departSpeed="avg" departPos="last" insertionChecks="none"/>
  <vehicle id="vehicle_51" depart="60.00" route="r_we" departLane="best_prob" departSpeed="avg" departPos="last" insertionChecks="none"/>
  <vehicle id="vehicle_52" depart="60.00" route="r_ws" departLane="best_prob" departSpeed="avg" departPos="last" insertionChecks="none"/>
  <vehicle id="vehicle_61" depart="60.00" route="r_we" departLane="best_prob" departSpeed="avg" departPos="last" insertionChecks="none"/>
  <vehicle id="vehicle_63" depart="60.00" route="r_wn" departLane="best_prob" departSpeed="avg" departPos="last" insertionChecks="none"/>
  <vehicle id="vehicle_64" depart="60.00" route="r_wn" departLane="best_prob" departSpeed="avg" departPos="last" insertionChecks="none"/>
  <vehicle id="vehicle_67" depart="60.00" route="r_nw" departLane="best_prob" departSpeed="avg" departPos="last" insertionChecks="none"/>
  <vehicle id="vehicle_70" depart="60.00" route="r_ns" departLane="best_prob" departSpeed="avg" departPos="last" insertionChecks="none"/>
  <vehicle id="vehicle_78" depart="60.00" route="r_ns" departLane="best_prob" departSpeed="avg" departPos="last" insertionChecks="none"/>
  <vehicle id="vehicle_84" depart="60.00" route="r_ne" departLane="best_prob" departSpeed="avg" departPos="last" insertionChecks="none"/>
  <vehicle id="vehicle_98" depart="60.00" route="r_ew" departLane="best_prob" departSpeed="avg" departPos="last" insertionChecks="none"/>
  <vehicle id="vehicle_99" depart="60.00" route="r_en" departLane="best_prob" departSpeed="avg" departPos="last" insertionChecks="none"/>
  <vehicle id="vehicle_101" depart="60.00" route="r_ew" departLane="best_prob" departSpeed="avg" departPos="last" insertionChecks="none"/>
  <vehicle id="vehicle_104" depart="60.00" route="r_es" departLane="best_prob" departSpeed="avg" departPos="last" insertionChecks="none"/>
  <vehicle id="vehicle_105" depart="60.00" route="r_es" departLane="best_prob" departSpeed="avg" departPos="last" insertionChecks="none"/>
  <vehicle id="vehicle_106" depart="60.00" route="r_sn" departLane="best_prob" departSpeed="avg" departPos="last" insertionChecks="none"/>
  <vehicle id="vehicle_110" depart="60.00" route="r_se" departLane="best_prob" departSpeed="avg" departPos="last" insertionChecks="none"/>
  <vehicle id="vehicle_85" depart="64.29" route="r_ne" departLane="best_prob" departSpeed="avg" departPos="last" insertionChecks="none"/>
  <vehicle id="vehicle_53" depart="66.67" route="r_ws" departLane="best_prob" departSpeed="avg" departPos="last" insertionChecks="none"/>
  <vehicle id="vehicle_71" depart="67.50" route="r_ns" departLane="best_prob" departSpeed="avg" departPos="last" insertionChecks="none"/>
  <vehicle id="vehicle_86" depart="68.57" route="r_ne" departLane="best_prob" departSpeed="avg" departPos="last" insertionChecks="none"/>
  <vehicle id="vehicle_79" depart="70.00" route="r_ns" departLane="best_prob" departSpeed="avg" departPos="last" insertionChecks="none"/>
  <vehicle id="vehicle_87" depart="72.86" route="r_ne" departLane="best_prob" departSpeed="avg" departPos="last" insertionChecks="none"/>
  <vehicle id="vehicle_54" depart="73.33" route="r_ws" departLane="best_prob" departSpeed="avg" departPos="last" insertionChecks="none"/>
  <vehicle id="vehicle_72" depart="75.00" route="r_ns" departLane="best_prob" departSpeed="avg" departPos="last" insertionChecks="none"/>
  <vehicle id="vehicle_107" depart="75.00" route="r_sn" departLane="best_prob" departSpeed="avg" departPos="last" insertionChecks="none"/>
  <vehicle id="vehicle_88" depart="77.14" route="r_ne" departLane="best_prob" departSpeed="avg" departPos="last" insertionChecks="none"/>
  <vehicle id="vehicle_55" depart="80.00" route="r_ws" departLane="best_prob" departSpeed="avg" departPos="last" insertionChecks="none"/>
  <vehicle id="vehicle_65" depart="80.00" route="r_wn" departLane="best_prob" departSpeed="avg" departPos="last" insertionChecks="none"/>
  <vehicle id="vehicle_68" depart="80.00" route="r_nw" departLane="best_prob" departSpeed="avg" departPos="last" insertionChecks="none"/>
  <vehicle id="vehicle_80" depart="80.00" route="r_ns" departLane="best_prob" departSpeed="avg" departPos="last" insertionChecks="none"/>
  <vehicle id="vehicle_102" depart="80.00" route="r_ew" departLane="best_prob" departSpeed="avg" departPos="last" insertionChecks="none"/>
  <vehicle id="vehicle_89" depart="81.43" route="r_ne" departLane="best_prob" departSpeed="avg" departPos="last" insertionChecks="none"/>
  <vehicle id="vehicle_73" depart="82.50" route="r_ns" departLane="best_prob" departSpeed="avg" departPos="last" insertionChecks="none"/>
  <vehicle id="vehicle_90" depart="85.71" route="r_ne" departLane="best_prob" departSpeed="avg" departPos="last" insertionChecks="none"/>
  <vehicle id="vehicle_56" depart="86.67" route="r_ws" departLane="best_prob" departSpeed="avg" departPos="last" insertionChecks="none"/>
  <vehicle id="vehicle_62" depart="90.00" route="r_we" departLane="best_prob" departSpeed="avg" departPos="last" insertionChecks="none"/>
  <vehicle id="vehicle_74" depart="90.00" route="r_ns" departLane="best_prob" departSpeed="avg" departPos="last" insertionChecks="none"/>
  <vehicle id="vehicle_81" depart="90.00" route="r_ns" departLane="best_prob" departSpeed="avg" departPos="last" insertionChecks="none"/>
  <vehicle id="vehicle_91" depart="90.00" route="r_ne" departLane="best_prob" departSpeed="avg" departPos="last" insertionChecks="none"/>
  <vehicle id="vehicle_100" depart="90.00" route="r_en" departLane="best_prob" departSpeed="avg" departPos="last" insertionChecks="none"/>
  <vehicle id="vehicle_108" depart="90.00" route="r_sn" departLane="best_prob" departSpeed="avg" departPos="last" insertionChecks="none"/>
  <vehicle id="vehicle_111" depart="90.00" route="r_se" departLane="best_prob" departSpeed="avg" departPos="last" insertionChecks="none"/>
  <vehicle id="vehicle_57" depart="93.33" route="r_ws" departLane="best_prob" departSpeed="avg" departPos="last" insertionChecks="none"/>
  <vehicle id="vehicle_92" depart="94.29" route="r_ne" departLane="best_prob" departSpeed="avg" departPos="last" insertionChecks="none"/>
  <vehicle id="vehicle_75" depart="97.50" route="r_ns" departLane="best_prob" departSpeed="avg" departPos="last" insertionChecks="none"/>
  <vehicle id="vehicle_93" depart="98.57" route="r_ne" departLane="best_prob" departSpeed="avg" departPos="last" insertionChecks="none"/>
  <vehicle id="vehicle_58" depart="100.00" route="r_ws" departLane="best_prob" departSpeed="avg" departPos="last" insertionChecks="none"/>
  <vehicle id="vehicle_66" depart="100.00" route="r_wn" departLane="best_prob" departSpeed="avg" departPos="last" insertionChecks="none"/>
  <vehicle id="vehicle_69" depart="100.00" route="r_nw" departLane="best_prob" departSpeed="avg" departPos="last" insertionChecks="none"/>
  <vehicle id="vehicle_82" depart="100.00" route="r_ns" departLane="best_prob" departSpeed="avg" departPos="last" insertionChecks="none"/>
  <vehicle id="vehicle_103" depart="100.00" route="r_ew" departLane="best_prob" departSpeed="avg" departPos="last" insertionChecks="none"/>
  <vehicle id="vehicle_94" depart="102.86" route="r_ne" departLane="best_prob" departSpeed="avg" departPos="last" insertionChecks="none"/>
  <vehicle id="vehicle_76" depart="105.00" route="r_ns" departLane="best_prob" departSpeed="avg" departPos="last" insertionChecks="none"/>
  <vehicle id="vehicle_109" depart="105.00" route="r_sn" departLane="best_prob" departSpeed="avg" departPos="last" insertionChecks="none"/>
  <vehicle id="vehicle_59" depart="106.67" route="r_ws" departLane="best_prob" departSpeed="avg" departPos="last" insertionChecks="none"/>
  <vehicle id="vehicle_95" depart="107.14" route="r_ne" departLane="best_prob" departSpeed="avg" departPos="last" insertionChecks="none"/>
  <vehicle id="vehicle_83" depart="110.00" route="r_ns" departLane="best_prob" departSpeed="avg" departPos="last" insertionChecks="none"/>
  <vehicle id="vehicle_96" depart="111.43" route="r_ne" departLane="best_prob" departSpeed="avg" departPos="last" insertionChecks="none"/>
  <vehicle id="vehicle_77" depart="112.50" route="r_ns" departLane="best_prob" departSpeed="avg" departPos="last" insertionChecks="none"/>
  <vehicle id="vehicle_60" depart="113.33" route="r_ws" departLane="best_prob" departSpeed="avg" departPos="last" insertionChecks="none"/>
  <vehicle id="vehicle_97" depart="115.71" route="r_ne" departLane="best_prob" departSpeed="avg" departPos="last" insertionChecks="none"/>
  <vehicle id="vehicle_112" depart="120.00" route="r_we" departLane="best_prob" departSpeed="avg" departPos="last" insertionChecks="none"/>
  <vehicle id="vehicle_113" depart="120.00" route="r_ws" departLane="best_prob" departSpeed="avg" departPos="last" insertionChecks="none"/>
  <vehicle id="vehicle_118" depart="120.00" route="r_we" departLane="best_prob" departSpeed="avg" departPos="last" insertionChecks="none"/>
  <vehicle id="vehicle_125" depart="120.00" route="r_wn" departLane="best_prob" departSpeed="avg" departPos="last" insertionChecks="none"/>
  <vehicle id="vehicle_129" depart="120.00" route="r_wn" departLane="best_prob" departSpeed="avg" departPos="last" insertionChecks="none"/>
  <vehicle id="vehicle_131" depart="120.00" route="r_ns" departLane="best_prob" departSpeed="avg" departPos="last" insertionChecks="none"/>
  <vehicle id="vehicle_151" depart="120.00" route="r_ns" departLane="best_prob" departSpeed="avg" departPos="last" insertionChecks="none"/>
  <vehicle id="vehicle_181" depart="120.00" route="r_ne" departLane="best_prob" departSpeed="avg" departPos="last" insertionChecks="none"/>
  <vehicle id="vehicle_192" depart="120.00" route="r_en" departLane="best_prob" departSpeed="avg" departPos="last" insertionChecks="none"/>
  <vehicle id="vehicle_194" depart="120.00" route="r_ew" departLane="best_prob" departSpeed="avg" departPos="last" insertionChecks="none"/>
  <vehicle id="vehicle_218" depart="120.00" route="r_es" departLane="best_prob" departSpeed="avg" departPos="last" insertionChecks="none"/>
  <vehicle id="vehicle_222" depart="120.00" route="r_es" departLane="best_prob" departSpeed="avg" departPos="last" insertionChecks="none"/>
  <vehicle id="vehicle_224" depart="120.00" route="r_sn" departLane="best_prob" departSpeed="avg" departPos="last" insertionChecks="none"/>
  <vehicle id="vehicle_225" depart="120.00" route="r_se" departLane="best_prob" departSpeed="avg" departPos="last" insertionChecks="none"/>
  <vehicle id="vehicle_226" depart="120.00" route="r_sn" departLane="best_prob" departSpeed="avg" departPos="last" insertionChecks="none"/>
  <vehicle id="vehicle_152" depart="122.00" route="r_ns" departLane="best_prob" departSpeed="avg" departPos="last" insertionChecks="none"/>
  <vehicle id="vehicle_195" depart="122.50" route="r_ew" departLane="best_prob" departSpeed="avg" departPos="last" insertionChecks="none"/>
  <vehicle id="vehicle_132" depart="123.00" route="r_ns" departLane="best_prob" departSpeed="avg" departPos="last" insertionChecks="none"/>
  <vehicle id="vehicle_153" depart="124.00" route="r_ns" departLane="best_prob" departSpeed="avg" departPos="last" insertionChecks="none"/>
  <vehicle id="vehicle_196" depart="125.00" route="r_ew" departLane="best_prob" departSpeed="avg" departPos="last" insertionChecks="none"/>
  <vehicle id="vehicle_182" depart="125.45" route="r_ne" departLane="best_prob" departSpeed="avg" departPos="last" insertionChecks="none"/>
  <vehicle id="vehicle_133" depart="126.00" route="r_ns" departLane="best_prob" departSpeed="avg" departPos="last" insertionChecks="none"/>
  <vehicle id="vehicle_154" depart="126.00" route="r_ns" departLane="best_prob" departSpeed="avg" departPos="last" insertionChecks="none"/>
  <vehicle id="vehicle_197" depart="127.50" route="r_ew" departLane="best_prob" departSpeed="avg" departPos="last" insertionChecks="none"/>
  <vehicle id="vehicle_155" depart="128.00" route="r_ns" departLane="best_prob" departSpeed="avg" departPos="last" insertionChecks="none"/>
  <vehicle id="vehicle_119" depart="128.57" route="r_we" departLane="best_prob" departSpeed="avg" departPos="last" insertionChecks="none"/>
  <vehicle id="vehicle_134" depart="129.00" route="r_ns" departLane="best_prob" departSpeed="avg" departPos="last" insertionChecks="none"/>
  <vehicle id="vehicle_156" depart="130.00" route="r_ns" departLane="best_prob" departSpeed="avg" departPos="last" insertionChecks="none"/>
  <vehicle id="vehicle_198" depart="130.00" route="r_ew" departLane="best_prob" departSpeed="avg" departPos="last" insertionChecks="none"/>
  <vehicle id="vehicle_183" depart="130.91" route="r_ne" departLane="best_prob" departSpeed="avg" departPos="last" insertionChecks="none"/>
  <vehicle id="vehicle_114" depart="132.00" route="r_ws" departLane="best_prob" departSpeed="avg" departPos="last" insertionChecks="none"/>
  <vehicle id="vehicle_135" depart="132.00" route="r_ns" departLane="best_prob" departSpeed="avg" departPos="last" insertionChecks="none"/>
  <vehicle id="vehicle_157" depart="132.00" route="r_ns" departLane="best_prob" departSpeed="avg" departPos="last" insertionChecks="none"/>
  <vehicle id="vehicle_199" depart="132.50" route="r_ew" departLane="best_prob" departSpeed="avg" departPos="last" insertionChecks="none"/>
  <vehicle id="vehicle_158" depart="134.00" route="r_ns" departLane="best_prob" departSpeed="avg" departPos="last" insertionChecks="none"/>
  <vehicle id="vehicle_126" depart="135.00" route="r_wn" departLane="best_prob" departSpeed="avg" departPos="last" insertionChecks="none"/>
  <vehicle id="vehicle_136" depart="135.00" route="r_ns" departLane="best_prob" departSpeed="avg" departPos="last" insertionChecks="none"/>
  <vehicle id="vehicle_200" depart="135.00" route="r_ew" departLane="best_prob" departSpeed="avg" departPos="last" insertionChecks="none"/>
  <vehicle id="vehicle_219" depart="135.00" route="r_es" departLane="best_prob" departSpeed="avg" departPos="last" insertionChecks="none"/>
  <vehicle id="vehicle_159" depart="136.00" route="r_ns" departLane="best_prob" departSpeed="avg" departPos="last" insertionChecks="none"/>
  <vehicle id="vehicle_184" depart="136.36" route="r_ne" departLane="best_prob" departSpeed="avg" departPos="last" insertionChecks="none"/>
  <vehicle id="vehicle_120" depart="137.14" route="r_we" departLane="best_prob" departSpeed="avg" departPos="last" insertionChecks="none"/>
  <vehicle id="vehicle_201" depart="137.50" route="r_ew" departLane="best_prob" departSpeed="avg" departPos="last" insertionChecks="none"/>
  <vehicle id="vehicle_137" depart="138.00" route="r_ns" departLane="best_prob" departSpeed="avg" departPos="last" insertionChecks="none"/>
  <vehicle id="vehicle_160" depart="138.00" route="r_ns" departLane="best_prob" departSpeed="avg" departPos="last" insertionChecks="none"/>
  <vehicle id="vehicle_161" depart="140.00" route="r_ns" departLane="best_prob" departSpeed="avg" departPos="last" insertionChecks="none"/>
  <vehicle id="vehicle_202" depart="140.00" route="r_ew" departLane="best_prob" departSpeed="avg" departPos="last" insertionChecks="none"/>
  <vehicle id="vehicle_138" depart="141.00" route="r_ns" departLane="best_prob" departSpeed="avg" departPos="last" insertionChecks="none"/>
  <vehicle id="vehicle_185" depart="141.82" route="r_ne" departLane="best_prob" departSpeed="avg" departPos="last" insertionChecks="none"/>
  <vehicle id="vehicle_162" depart="142.00" route="r_ns" departLane="best_prob" departSpeed="avg" departPos="last" insertionChecks="none"/>
  <vehicle id="vehicle_203" depart="142.50" route="r_ew" departLane="best_prob" departSpeed="avg" departPos="last" insertionChecks="none"/>
  <vehicle id="vehicle_115" depart="144.00" route="r_ws" departLane="best_prob" departSpeed="avg" departPos="last" insertionChecks="none"/>
  <vehicle id="vehicle_139" depart="144.00" route="r_ns" departLane="best_prob" departSpeed="avg" departPos="last" insertionChecks="none"/>
  <vehicle id="vehicle_163" depart="144.00" route="r_ns" departLane="best_prob" departSpeed="avg" departPos="last" insertionChecks="none"/>
  <vehicle id="vehicle_204" depart="145.00" route="r_ew" departLane="best_prob" departSpeed="avg" departPos="last" insertionChecks="none"/>
  <vehicle id="vehicle_121" depart="145.71" route="r_we" departLane="best_prob" departSpeed="avg" departPos="last" insertionChecks="none"/>
  <vehicle id="vehicle_164" depart="146.00" route="r_ns" departLane="best_prob" departSpeed="avg" departPos="last" insertionChecks="none"/>
  <vehicle id="vehicle_140" depart="147.00" route="r_ns" departLane="best_prob" departSpeed="avg" departPos="last" insertionChecks="none"/>
  <vehicle id="vehicle_186" depart="147.27" route="r_ne" departLane="best_prob" departSpeed="avg" departPos="last" insertionChecks="none"/>
  <vehicle id="vehicle_205" depart="147.50" route="r_ew" departLane="best_prob" departSpeed="avg" departPos="last" insertionChecks="none"/>
  <vehicle id="vehicle_165" depart="148.00" route="r_ns" departLane="best_prob" departSpeed="avg" departPos="last" insertionChecks="none"/>
  <vehicle id="vehicle_127" depart="150.00" route="r_wn" departLane="best_prob" departSpeed="avg" departPos="last" insertionChecks="none"/>
  <vehicle id="vehicle_130" depart="150.00" route="r_wn" departLane="best_prob" departSpeed="avg" departPos="last" insertionChecks="none"/>
  <vehicle id="vehicle_141" depart="150.00" route="r_ns" departLane="best_prob" departSpeed="avg" departPos="last" insertionChecks="none"/>
  <vehicle id="vehicle_166" depart="150.00" route="r_ns" departLane="best_prob" departSpeed="avg" departPos="last" insertionChecks="none"/>
  <vehicle id="vehicle_193" depart="150.00" route="r_en" departLane="best_prob" departSpeed="avg" departPos="last" insertionChecks="none"/>
  <vehicle id="vehicle_206" depart="150.00" route="r_ew" departLane="best_prob" departSpeed="avg" departPos="last" insertionChecks="none"/>
  <vehicle id="vehicle_220" depart="150.00" route="r_es" departLane="best_prob" departSpeed="avg" departPos="last" insertionChecks="none"/>
  <vehicle id="vehicle_223" depart="150.00" route="r_es" departLane="best_prob" departSpeed="avg" departPos="last" insertionChecks="none"/>
  <vehicle id="vehicle_167" depart="152.00" route="r_ns" departLane="best_prob" departSpeed="avg" departPos="last" insertionChecks="none"/>
  <vehicle id="vehicle_207" depart="152.50" route="r_ew" departLane="best_prob" departSpeed="avg" departPos="last" insertionChecks="none"/>
  <vehicle id="vehicle_187" depart="152.73" route="r_ne" departLane="best_prob" departSpeed="avg" departPos="last" insertionChecks="none"/>
  <vehicle id="vehicle_142" depart="153.00" route="r_ns" departLane="best_prob" departSpeed="avg" departPos="last" insertionChecks="none"/>
  <vehicle id="vehicle_168" depart="154.00" route="r_ns" departLane="best_prob" departSpeed="avg" departPos="last" insertionChecks="none"/>
  <vehicle id="vehicle_122" depart="154.29" route="r_we" departLane="best_prob" departSpeed="avg" departPos="last" insertionChecks="none"/>
  <vehicle id="vehicle_208" depart="155.00" route="r_ew" departLane="best_prob" departSpeed="avg" departPos="last" insertionChecks="none"/>
  <vehicle id="vehicle_116" depart="156.00" route="r_ws" departLane="best_prob" departSpeed="avg" departPos="last" insertionChecks="none"/>
  <vehicle id="vehicle_143" depart="156.00" route="r_ns" departLane="best_prob" departSpeed="avg" departPos="last" insertionChecks="none"/>
  <vehicle id="vehicle_169" depart="156.00" route="r_ns" departLane="best_prob" departSpeed="avg" departPos="last" insertionChecks="none"/>
  <vehicle id="vehicle_209" depart="157.50" route="r_ew" departLane="best_prob" departSpeed="avg" departPos="last" insertionChecks="none"/>
  <vehicle id="vehicle_170" depart="158.00" route="r_ns" departLane="best_prob" departSpeed="avg" departPos="last" insertionChecks="none"/>
  <vehicle id="vehicle_188" depart="158.18" route="r_ne" departLane="best_prob" departSpeed="avg" departPos="last" insertionChecks="none"/>
  <vehicle id="vehicle_144" depart="159.00" route="r_ns" departLane="best_prob" departSpeed="avg" departPos="last" insertionChecks="none"/>
  <vehicle id="vehicle_171" depart="160.00" route="r_ns" departLane="best_prob" departSpeed="avg" departPos="last" insertionChecks="none"/>
  <vehicle id="vehicle_210" depart="160.00" route="r_ew" departLane="best_prob" departSpeed="avg" departPos="last" insertionChecks="none"/>
  <vehicle id="vehicle_145" depart="162.00" route="r_ns" departLane="best_prob" departSpeed="avg" departPos="last" insertionChecks="none"/>
  <vehicle id="vehicle_172" depart="162.00" route="r_ns" departLane="best_prob" departSpeed="avg" departPos="last" insertionChecks="none"/>
  <vehicle id="vehicle_211" depart="162.50" route="r_ew" departLane="best_prob" departSpeed="avg" departPos="last" insertionChecks="none"/>
  <vehicle id="vehicle_123" depart="162.86" route="r_we" departLane="best_prob" departSpeed="avg" departPos="last" insertionChecks="none"/>
  <vehicle id="vehicle_189" depart="163.64" route="r_ne" departLane="best_prob" departSpeed="avg" departPos="last" insertionChecks="none"/>
  <vehicle id="vehicle_173" depart="164.00" route="r_ns" departLane="best_prob" departSpeed="avg" departPos="last" insertionChecks="none"/>
  <vehicle id="vehicle_128" depart="165.00" route="r_wn" departLane="best_prob" departSpeed="avg" departPos="last" insertionChecks="none"/>
  <vehicle id="vehicle_146" depart="165.00" route="r_ns" departLane="best_prob" departSpeed="avg" departPos="last" insertionChecks="none"/>
  <vehicle id="vehicle_212" depart="165.00" route="r_ew" departLane="best_prob" departSpeed="avg" departPos="last" insertionChecks="none"/>
  <vehicle id="vehicle_221" depart="165.00" route="r_es" departLane="best_prob" departSpeed="avg" departPos="last" insertionChecks="none"/>
  <vehicle id="vehicle_174" depart="166.00" route="r_ns" departLane="best_prob" departSpeed="avg" departPos="last" insertionChecks="none"/>