<?xml version="1.0" encoding="UTF-8"?>



<routes xmlns:xsi="http://www.w3.org/2001/XMLSchema-instance" xsi:noNamespaceSchemaLocation="http://sumo.dlr.de/xsd/routes_file.xsd">
    <vType id="bus" vClass="bus" color="red"/>
    <vType id="tram" vClass="tram" color="blue"/>
    <route edges="-56041151#1 -56041151#0 -86860823 86860821#0 86860821#1 86860821#2 189004526#0 189004526#1 86865206 33557890#0 33557890#1" color="yellow" id="route_0"/>
    <route edges="-56041151#0 -86860823 86860821#0 86860821#1 86860821#2 189004526#0 189004526#1 86865206 -26925581#2 -26925581#1 -26925581#0 -863004827 -26925580" color="yellow" id="route_1"/>
    <route edges="24798229#6 428260942 428260946#0 428260946#1 31014214 86865206 33557890#0 33557890#1" color="yellow" id="route_10"/>
    <route edges="24798229#6 428260942 428260946#0 428260946#1 31014214 86865206 -26925581#2 -26925581#1 -26925581#0 -863004827 -26925580" color="yellow" id="route_11"/>
    <route edges="24798229#6 428260942 428260946#0 428260946#1 31014214 56043685#0 56043685#1" color="yellow" id="route_12"/>
    <route edges="24798229#6 428260942 428260946#0 428260946#1 86865230#0 86865230#1 86865230#2 86865230#3 86865230#4 86860823 56041151#0 56041151#1" color="yellow" id="route_13"/>
    <route edges="428260943 428260945#0 428260945#1 118227930 33557890#0 33557890#1" color="yellow" id="route_14">
        <stop busStop="busStop_33557890#1_0_1" duration="60.00"/>
    </route>
    <route edges="-56041151#1 -56041151#0 -86860823 86860821#0 86860821#1 86860821#2 189004526#0 189004526#1 86865206 33557890#0 33557890#1" color="yellow" id="route_16">
        <stop busStop="busStop_33557890#1_0_1" duration="60.00"/>
    </route>
    <route edges="-56041151#1 -56041151#0 -86860823 86860821#0 86860821#1 86860821#2 189004526#0 189004526#1 56043685#0 56043685#1" color="yellow" id="route_17">
        <stop busStop="busStop_56043685#1_0_0" duration="60.00"/>
    </route>
    <route edges="-56041151#1 -56041151#0 -86860823 86860821#0 86860821#1 86860821#2 189004526#0 189004526#1 56043685#0 56043685#1" color="yellow" id="route_15">
        <stop busStop="busStop_56043685#1_0_0" duration="60.00"/>
    </route>
    <route edges="24798229#6 428260942 428260946#0 428260946#1 86865230#0 86865230#1 86865230#2 86865230#3 86865230#4 86860823 56041151#0 56041151#1" color="yellow" id="route_19">
        <stop busStop="busStop_86860823_0_4" duration="60.00"/>
    </route>
    <route edges="24798229#6 428260942 428260946#0 428260946#1 86865230#0 86865230#1 86865230#2 86865230#3 86865230#4 86860823 56041151#0 56041151#1" color="yellow" id="route_18">
        <stop busStop="busStop_86860823_0_4" duration="60.00"/>
    </route>
    <route edges="-56041151#1 -56041151#0 -86860823 86860821#0 86860821#1 86860821#2 189004526#0 189004526#1 56043685#0 56043685#1" color="yellow" id="route_2"/>
    <route edges="251393900#2 251393900#3 251393900#4 251393900#5" color="yellow" id="route_20">
        <stop busStop="busStop_251393900#2_0_3" duration="60.00"/>
    </route>
    <route edges="251393901#0 251393901#1 251393901#2 251393901#3" color="yellow" id="route_21">
        <stop busStop="busStop_251393901#3_0_2" duration="60.00"/>
    </route>
    <route edges="428260943 428260945#0 428260945#1 118227930 4041687 31014214 56043685#0 56043685#1" color="yellow" id="route_3"/>
    <route edges="428260943 428260945#0 428260945#1 118227930 4041687 86865230#0 86865230#1 86865230#2 86865230#3 86865230#4 86860823 56041151#0 56041151#1" color="yellow" id="route_4"/>
    <route edges="428260943 428260945#0 428260945#1 118227930 33557890#0 33557890#1" color="yellow" id="route_5"/>
    <route edges="428260943 428260945#0 428260945#1 118227930 -26925581#2 -26925581#1 -26925581#0 -863004827 -26925580" color="yellow" id="route_6"/>
    <route edges="26925580 863004827 26925581#0 26925581#1 26925581#2 4041687 31014214 56043685#0 56043685#1" color="yellow" id="route_7"/>
    <route edges="26925580 863004827 26925581#0 26925581#1 26925581#2 4041687 86865230#0 86865230#1 86865230#2 86865230#3 86865230#4 86860823 56041151#0" color="yellow" id="route_8"/>
    <route edges="26925580 863004827 26925581#0 26925581#1 26925581#2 33557890#0 33557890#1" color="yellow" id="route_9"/>
    <vehicle id="vehicle_0" type="bus" depart="8.00" route="route_19"/>
<vehicle id="vehicle_1" depart="25.00" route="route_5"/>
<vehicle id="vehicle_2" depart="25.00" route="route_5"/>
<vehicle id="vehicle_3" depart="28.00" route="route_12"/>
<vehicle id="vehicle_4" depart="28.00" route="route_12"/>
<vehicle id="vehicle_5" depart="28.00" route="route_12"/>
<vehicle id="vehicle_6" depart="28.00" route="route_12"/>
<vehicle id="vehicle_7" depart="28.00" route="route_12"/>
<vehicle id="vehicle_8" depart="28.00" route="route_12"/>
<vehicle id="vehicle_9" type="bus" depart="30.00" route="route_15"/>
<vehicle id="vehicle_10" depart="33.00" route="route_5"/>
<vehicle id="vehicle_11" depart="33.00" route="route_5"/>
<vehicle id="vehicle_12" depart="33.00" route="route_5"/>
<vehicle id="vehicle_13" depart="33.00" route="route_5"/>
<vehicle id="vehicle_14" depart="33.00" route="route_5"/>
<vehicle id="vehicle_15" depart="33.00" route="route_5"/>
<vehicle id="vehicle_16" depart="40.00" route="route_5"/>
<vehicle id="vehicle_17" type="bus" depart="67.00" route="route_19"/>
<vehicle id="vehicle_18" type="bus" depart="70.00" route="route_15"/>
<vehicle id="vehicle_19" depart="92.00" route="route_4"/>
<vehicle id="vehicle_20" depart="99.00" route="route_5"/>
<vehicle id="vehicle_21" depart="99.00" route="route_5"/>
<vehicle id="vehicle_22" depart="99.00" route="route_5"/>
<vehicle id="vehicle_23" depart="99.00" route="route_5"/>
<vehicle id="vehicle_24" depart="99.00" route="route_5"/>
<vehicle id="vehicle_25" depart="99.00" route="route_5"/>
<vehicle id="vehicle_26" depart="99.00" route="route_5"/>
<vehicle id="vehicle_27" depart="99.00" route="route_5"/>
<vehicle id="vehicle_28" depart="99.00" route="route_5"/>
<vehicle id="vehicle_29" depart="103.00" route="route_12"/>
<vehicle id="vehicle_30" depart="103.00" route="route_12"/>
<vehicle id="vehicle_31" depart="103.00" route="route_12"/>
<vehicle id="vehicle_32" depart="114.00" route="route_12"/>
<vehicle id="vehicle_33" depart="114.00" route="route_12"/>
<vehicle id="vehicle_34" depart="114.00" route="route_12"/>
<vehicle id="vehicle_35" depart="114.00" route="route_12"/>
<vehicle id="vehicle_36" depart="114.00" route="route_12"/>
<vehicle id="vehicle_37" type="tram" depart="125.00" route="route_21"/>
<vehicle id="vehicle_38" depart="134.00" route="route_5"/>
<vehicle id="vehicle_39" depart="134.00" route="route_5"/>
<vehicle id="vehicle_40" depart="134.00" route="route_5"/>
<vehicle id="vehicle_41" depart="134.00" route="route_5"/>
<vehicle id="vehicle_42" depart="170.00" route="route_5"/>
<vehicle id="vehicle_43" depart="170.00" route="route_5"/>
<vehicle id="vehicle_44" depart="170.00" route="route_5"/>
<vehicle id="vehicle_45" depart="170.00" route="route_5"/>
<vehicle id="vehicle_46" depart="170.00" route="route_5"/>
<vehicle id="vehicle_47" depart="170.00" route="route_5"/>
<vehicle id="vehicle_48" depart="170.00" route="route_5"/>
<vehicle id="vehicle_49" depart="170.00" route="route_5"/>
<vehicle id="vehicle_50" type="bus" depart="173.00" route="route_18"/>
<vehicle id="vehicle_51" depart="179.00" route="route_12"/>
<vehicle id="vehicle_52" depart="179.00" route="route_12"/>
<vehicle id="vehicle_53" depart="179.00" route="route_12"/>
<vehicle id="vehicle_54" depart="179.00" route="route_12"/>
<vehicle id="vehicle_55" depart="179.00" route="route_12"/>
<vehicle id="vehicle_56" depart="182.00" route="route_5"/>
<vehicle id="vehicle_57" depart="182.00" route="route_5"/>
<vehicle id="vehicle_58" depart="182.00" route="route_5"/>
<vehicle id="vehicle_59" depart="182.00" route="route_5"/>
<vehicle id="vehicle_60" depart="182.00" route="route_5"/>
<vehicle id="vehicle_61" depart="227.00" route="route_5"/>
<vehicle id="vehicle_62" depart="234.00" route="route_12"/>
<vehicle id="vehicle_63" depart="234.00" route="route_12"/>
<vehicle id="vehicle_64" depart="236.00" route="route_5"/>
<vehicle id="vehicle_65" depart="236.00" route="route_5"/>
<vehicle id="vehicle_66" depart="236.00" route="route_5"/>
<vehicle id="vehicle_67" depart="236.00" route="route_5"/>
<vehicle id="vehicle_68" depart="236.00" route="route_5"/>
<vehicle id="vehicle_69" depart="236.00" route="route_5"/>
<vehicle id="vehicle_70" depart="236.00" route="route_5"/>
<vehicle id="vehicle_71" depart="236.00" route="route_5"/>
<vehicle id="vehicle_72" depart="236.00" route="route_5"/>
<vehicle id="vehicle_73" depart="236.00" route="route_5"/>
<vehicle id="vehicle_74" depart="236.00" route="route_5"/>
<vehicle id="vehicle_75" depart="237.00" route="route_12"/>
<vehicle id="vehicle_76" depart="237.00" route="route_12"/>
<vehicle id="vehicle_77" depart="242.00" route="route_12"/>
<vehicle id="vehicle_78" depart="242.00" route="route_12"/>
<vehicle id="vehicle_79" depart="244.00" route="route_5"/>
<vehicle id="vehicle_80" depart="244.00" route="route_5"/>
<vehicle id="vehicle_81" depart="244.00" route="route_5"/>
<vehicle id="vehicle_82" depart="244.00" route="route_5"/>
<vehicle id="vehicle_83" depart="246.00" route="route_12"/>
<vehicle id="vehicle_84" depart="246.00" route="route_12"/>
<vehicle id="vehicle_85" depart="246.00" route="route_12"/>
<vehicle id="vehicle_86" depart="256.00" route="route_12"/>
<vehicle id="vehicle_87" depart="260.00" route="route_5"/>
<vehicle id="vehicle_88" depart="260.00" route="route_5"/>
<vehicle id="vehicle_89" depart="263.00" route="route_12"/>
<vehicle id="vehicle_90" depart="263.00" route="route_12"/>
<vehicle id="vehicle_91" depart="263.00" route="route_12"/>
<vehicle id="vehicle_92" depart="263.00" route="route_12"/>
<vehicle id="vehicle_93" depart="263.00" route="route_12"/>
<vehicle id="vehicle_94" depart="263.00" route="route_12"/>
<vehicle id="vehicle_95" depart="263.00" route="route_12"/>
<vehicle id="vehicle_96" depart="273.00" route="route_5"/>
<vehicle id="vehicle_97" depart="286.00" route="route_5"/>
<vehicle id="vehicle_98" depart="286.00" route="route_5"/>
<vehicle id="vehicle_99" depart="286.00" route="route_5"/>
<vehicle id="vehicle_100" depart="286.00" route="route_5"/>
<vehicle id="vehicle_101" depart="286.00" route="route_5"/>
<vehicle id="vehicle_102" depart="288.00" route="route_12"/>
<vehicle id="vehicle_103" depart="288.00" route="route_12"/>
<vehicle id="vehicle_104" depart="294.00" route="route_5"/>
<vehicle id="vehicle_105" depart="294.00" route="route_5"/>
<vehicle id="vehicle_106" depart="294.00" route="route_5"/>
<vehicle id="vehicle_107" depart="294.00" route="route_5"/>
<vehicle id="vehicle_108" depart="315.00" route="route_12"/>
<vehicle id="vehicle_109" depart="321.00" route="route_12"/>
<vehicle id="vehicle_110" depart="321.00" route="route_12"/>
<vehicle id="vehicle_111" depart="321.00" route="route_12"/>
<vehicle id="vehicle_112" depart="321.00" route="route_12"/>
<vehicle id="vehicle_113" depart="333.00" route="route_12"/>
<vehicle id="vehicle_114" depart="336.00" route="route_5"/>
<vehicle id="vehicle_115" depart="336.00" route="route_5"/>
<vehicle id="vehicle_116" depart="336.00" route="route_5"/>
<vehicle id="vehicle_117" depart="349.00" route="route_8"/>
<vehicle id="vehicle_118" type="bus" depart="350.00" route="route_17"/>
<vehicle id="vehicle_119" depart="372.00" route="route_5"/>
<vehicle id="vehicle_120" depart="372.00" route="route_5"/>
<vehicle id="vehicle_121" depart="372.00" route="route_5"/>
<vehicle id="vehicle_122" depart="372.00" route="route_5"/>
<vehicle id="vehicle_123" type="bus" depart="377.00" route="route_18"/>
<vehicle id="vehicle_124" depart="384.00" route="route_5"/>
<vehicle id="vehicle_125" depart="384.00" route="route_5"/>
<vehicle id="vehicle_126" depart="384.00" route="route_5"/>
<vehicle id="vehicle_127" depart="387.00" route="route_12"/>
<vehicle id="vehicle_128" depart="387.00" route="route_12"/>
<vehicle id="vehicle_129" depart="387.00" route="route_12"/>
<vehicle id="vehicle_130" depart="387.00" route="route_12"/>
<vehicle id="vehicle_131" depart="387.00" route="route_12"/>
<vehicle id="vehicle_132" depart="387.00" route="route_12"/>
<vehicle id="vehicle_133" depart="387.00" route="route_12"/>
<vehicle id="vehicle_134" depart="387.00" route="route_12"/>
<vehicle id="vehicle_135" depart="387.00" route="route_12"/>
<vehicle id="vehicle_136" depart="414.00" route="route_9"/>
<vehicle id="vehicle_137" depart="433.00" route="route_12"/>
<vehicle id="vehicle_138" depart="433.00" route="route_12"/>
<vehicle id="vehicle_139" depart="433.00" route="route_12"/>
<vehicle id="vehicle_140" depart="435.00" route="route_12"/>
<vehicle id="vehicle_141" depart="435.00" route="route_12"/>
<vehicle id="vehicle_142" depart="440.00" route="route_5"/>
<vehicle id="vehicle_143" depart="440.00" route="route_5"/>
<vehicle id="vehicle_144" depart="440.00" route="route_5"/>
<vehicle id="vehicle_145" depart="440.00" route="route_5"/>
<vehicle id="vehicle_146" depart="440.00" route="route_5"/>
<vehicle id="vehicle_147" depart="440.00" route="route_5"/>
<vehicle id="vehicle_148" depart="448.00" route="route_5"/>
<vehicle id="vehicle_149" depart="453.00" route="route_12"/>
<vehicle id="vehicle_150" depart="453.00" route="route_12"/>
<vehicle id="vehicle_151" depart="488.00" route="route_9"/>
<vehicle id="vehicle_152" depart="502.00" route="route_12"/>
<vehicle id="vehicle_153" depart="502.00" route="route_12"/>
<vehicle id="vehicle_154" depart="502.00" route="route_12"/>
<vehicle id="vehicle_155" depart="502.00" route="route_12"/>
<vehicle id="vehicle_156" depart="507.00" route="route_12"/>
<vehicle id="vehicle_157" depart="507.00" route="route_12"/>
<vehicle id="vehicle_158" depart="507.00" route="route_12"/>
<vehicle id="vehicle_159" depart="511.00" route="route_5"/>
<vehicle id="vehicle_160" depart="511.00" route="route_5"/>
<vehicle id="vehicle_161" depart="511.00" route="route_5"/>
<vehicle id="vehicle_162" depart="511.00" route="route_5"/>
<vehicle id="vehicle_163" depart="511.00" route="route_5"/>
<vehicle id="vehicle_164" depart="511.00" route="route_5"/>
<vehicle id="vehicle_165" depart="511.00" route="route_5"/>
<vehicle id="vehicle_166" depart="511.00" route="route_5"/>
<vehicle id="vehicle_167" depart="511.00" route="route_5"/>
<vehicle id="vehicle_168" depart="511.00" route="route_5"/>
<vehicle id="vehicle_169" depart="511.00" route="route_5"/>
<vehicle id="vehicle_170" depart="524.00" route="route_5"/>
<vehicle id="vehicle_171" depart="539.00" route="route_5"/>
<vehicle id="vehicle_172" depart="539.00" route="route_5"/>
<vehicle id="vehicle_173" depart="539.00" route="route_5"/>
<vehicle id="vehicle_174" depart="539.00" route="route_5"/>
<vehicle id="vehicle_175" depart="539.00" route="route_5"/>
<vehicle id="vehicle_176" depart="539.00" route="route_5"/>
<vehicle id="vehicle_177" depart="539.00" route="route_5"/>
<vehicle id="vehicle_178" depart="539.00" route="route_5"/>
<vehicle id="vehicle_179" depart="539.00" route="route_5"/>
<vehicle id="vehicle_180" depart="539.00" route="route_5"/>
<vehicle id="vehicle_181" depart="562.00" route="route_7"/>
<vehicle id="vehicle_182" depart="562.00" route="route_7"/>
<vehicle id="vehicle_183" depart="571.00" route="route_7"/>
<vehicle id="vehicle_184" type="tram" depart="574.00" route="route_20"/>
<vehicle id="vehicle_185" depart="591.00" route="route_5"/>
<vehicle id="vehicle_186" depart="591.00" route="route_5"/>
<vehicle id="vehicle_187" depart="591.00" route="route_5"/>
<vehicle id="vehicle_188" depart="591.00" route="route_5"/>
<vehicle id="vehicle_189" depart="591.00" route="route_5"/>
<vehicle id="vehicle_190" depart="596.00" route="route_5"/>
<vehicle id="vehicle_191" depart="596.00" route="route_5"/>
<vehicle id="vehicle_192" depart="606.00" route="route_7"/>
<vehicle id="vehicle_193" depart="625.00" route="route_12"/>
<vehicle id="vehicle_194" depart="625.00" route="route_12"/>
<vehicle id="vehicle_195" depart="625.00" route="route_12"/>
<vehicle id="vehicle_196" depart="625.00" route="route_12"/>
<vehicle id="vehicle_197" depart="625.00" route="route_12"/>
<vehicle id="vehicle_198" depart="625.00" route="route_12"/>
<vehicle id="vehicle_199" depart="625.00" route="route_12"/>
<vehicle id="vehicle_200" depart="625.00" route="route_12"/>
<vehicle id="vehicle_201" depart="625.00" route="route_12"/>
<vehicle id="vehicle_202" depart="631.00" route="route_4"/>
<vehicle id="vehicle_203" type="tram" depart="649.00" route="route_20"/>
<vehicle id="vehicle_204" depart="649.00" route="route_5"/>
<vehicle id="vehicle_205" depart="661.00" route="route_5"/>
<vehicle id="vehicle_206" depart="672.00" route="route_6"/>
<vehicle id="vehicle_207" depart="674.00" route="route_12"/>
<vehicle id="vehicle_208" depart="674.00" route="route_12"/>
<vehicle id="vehicle_209" depart="674.00" route="route_12"/>
<vehicle id="vehicle_210" depart="674.00" route="route_12"/>
<vehicle id="vehicle_211" depart="674.00" route="route_12"/>
<vehicle id="vehicle_212" depart="674.00" route="route_12"/>
<vehicle id="vehicle_213" depart="674.00" route="route_12"/>
<vehicle id="vehicle_214" depart="674.00" route="route_12"/>
<vehicle id="vehicle_215" depart="682.00" route="route_7"/>
<vehicle id="vehicle_216" depart="695.00" route="route_11"/>
<vehicle id="vehicle_217" depart="696.00" route="route_7"/>
<vehicle id="vehicle_218" depart="708.00" route="route_5"/>
<vehicle id="vehicle_219" depart="708.00" route="route_5"/>
<vehicle id="vehicle_220" depart="708.00" route="route_5"/>
<vehicle id="vehicle_221" depart="708.00" route="route_5"/>
<vehicle id="vehicle_222" depart="708.00" route="route_5"/>
<vehicle id="vehicle_223" depart="708.00" route="route_5"/>
<vehicle id="vehicle_224" depart="708.00" route="route_5"/>
<vehicle id="vehicle_225" type="bus" depart="711.00" route="route_18"/>
<vehicle id="vehicle_226" depart="718.00" route="route_12"/>
<vehicle id="vehicle_227" depart="718.00" route="route_12"/>
<vehicle id="vehicle_228" depart="718.00" route="route_12"/>
<vehicle id="vehicle_229" depart="721.00" route="route_5"/>
<vehicle id="vehicle_230" depart="729.00" route="route_11"/>
<vehicle id="vehicle_231" depart="746.00" route="route_9"/>
<vehicle id="vehicle_232" depart="754.00" route="route_9"/>
<vehicle id="vehicle_233" depart="754.00" route="route_9"/>
<vehicle id="vehicle_234" depart="769.00" route="route_5"/>
<vehicle id="vehicle_235" depart="769.00" route="route_5"/>
<vehicle id="vehicle_236" depart="769.00" route="route_5"/>
<vehicle id="vehicle_237" depart="769.00" route="route_5"/>
<vehicle id="vehicle_238" depart="771.00" route="route_12"/>
<vehicle id="vehicle_239" depart="771.00" route="route_12"/>
<vehicle id="vehicle_240" depart="771.00" route="route_12"/>
<vehicle id="vehicle_241" depart="781.00" route="route_12"/>
<vehicle id="vehicle_242" depart="781.00" route="route_12"/>
<vehicle id="vehicle_243" depart="781.00" route="route_12"/>
<vehicle id="vehicle_244" depart="781.00" route="route_12"/>
<vehicle id="vehicle_245" depart="782.00" route="route_5"/>
<vehicle id="vehicle_246" depart="782.00" route="route_5"/>
<vehicle id="vehicle_247" depart="782.00" route="route_5"/>
<vehicle id="vehicle_248" depart="782.00" route="route_5"/>
<vehicle id="vehicle_249" depart="782.00" route="route_5"/>
<vehicle id="vehicle_250" depart="782.00" route="route_5"/>
<vehicle id="vehicle_251" depart="782.00" route="route_5"/>
<vehicle id="vehicle_252" depart="782.00" route="route_5"/>
<vehicle id="vehicle_253" depart="782.00" route="route_5"/>
<vehicle id="vehicle_254" depart="788.00" route="route_12"/>
<vehicle id="vehicle_255" depart="788.00" route="route_12"/>
<vehicle id="vehicle_256" depart="788.00" route="route_12"/>
<vehicle id="vehicle_257" depart="788.00" route="route_12"/>
<vehicle id="vehicle_258" depart="788.00" route="route_6"/>
<vehicle id="vehicle_259" depart="797.00" route="route_5"/>
<vehicle id="vehicle_260" depart="797.00" route="route_5"/>
<vehicle id="vehicle_261" depart="797.00" route="route_5"/>
<vehicle id="vehicle_262" depart="797.00" route="route_5"/>
<vehicle id="vehicle_263" depart="823.00" route="route_9"/>
<vehicle id="vehicle_264" depart="839.00" route="route_5"/>
<vehicle id="vehicle_265" depart="839.00" route="route_5"/>
<vehicle id="vehicle_266" depart="839.00" route="route_5"/>
<vehicle id="vehicle_267" depart="839.00" route="route_5"/>
<vehicle id="vehicle_268" depart="839.00" route="route_5"/>
<vehicle id="vehicle_269" depart="841.00" route="route_12"/>
<vehicle id="vehicle_270" depart="841.00" route="route_12"/>
<vehicle id="vehicle_271" depart="841.00" route="route_12"/>
<vehicle id="vehicle_272" depart="841.00" route="route_12"/>
<vehicle id="vehicle_273" depart="848.00" route="route_12"/>
<vehicle id="vehicle_274" depart="848.00" route="route_12"/>
<vehicle id="vehicle_275" depart="848.00" route="route_12"/>
<vehicle id="vehicle_276" depart="853.00" route="route_12"/>
<vehicle id="vehicle_277" depart="853.00" route="route_12"/>
<vehicle id="vehicle_278" depart="853.00" route="route_12"/>
<vehicle id="vehicle_279" depart="853.00" route="route_12"/>
<vehicle id="vehicle_280" depart="858.00" route="route_5"/>
<vehicle id="vehicle_281" depart="858.00" route="route_5"/>
<vehicle id="vehicle_282" depart="858.00" route="route_5"/>
<vehicle id="vehicle_283" depart="858.00" route="route_5"/>
<vehicle id="vehicle_284" depart="858.00" route="route_5"/>
<vehicle id="vehicle_285" depart="858.00" route="route_5"/>
<vehicle id="vehicle_286" depart="869.00" route="route_5"/>
<vehicle id="vehicle_287" depart="869.00" route="route_5"/>
<vehicle id="vehicle_288" depart="869.00" route="route_5"/>
<vehicle id="vehicle_289" depart="869.00" route="route_5"/>
<vehicle id="vehicle_290" depart="869.00" route="route_5"/>
<vehicle id="vehicle_291" depart="869.00" route="route_5"/>
<vehicle id="vehicle_292" depart="869.00" route="route_5"/>
<vehicle id="vehicle_293" depart="888.00" route="route_9"/>
<vehicle id="vehicle_294" depart="914.00" route="route_3"/>
<vehicle id="vehicle_295" depart="914.00" route="route_3"/>
<vehicle id="vehicle_296" depart="928.00" route="route_5"/>
<vehicle id="vehicle_297" depart="928.00" route="route_5"/>
<vehicle id="vehicle_298" depart="934.00" route="route_12"/>
<vehicle id="vehicle_299" depart="934.00" route="route_12"/>
<vehicle id="vehicle_300" depart="934.00" route="route_12"/>
<vehicle id="vehicle_301" depart="934.00" route="route_12"/>
<vehicle id="vehicle_302" depart="934.00" route="route_12"/>
<vehicle id="vehicle_303" depart="934.00" route="route_12"/>
<vehicle id="vehicle_304" depart="934.00" route="route_12"/>
<vehicle id="vehicle_305" depart="934.00" route="route_12"/>
<vehicle id="vehicle_306" depart="934.00" route="route_12"/>
<vehicle id="vehicle_307" depart="934.00" route="route_12"/>
<vehicle id="vehicle_308" depart="934.00" route="route_12"/>
<vehicle id="vehicle_309" depart="934.00" route="route_12"/>
<vehicle id="vehicle_310" depart="934.00" route="route_12"/>
<vehicle id="vehicle_311" depart="934.00" route="route_12"/>
<vehicle id="vehicle_312" depart="942.00" route="route_5"/>
<vehicle id="vehicle_313" type="tram" depart="971.00" route="route_21"/>
<vehicle id="vehicle_314" type="bus" depart="973.00" route="route_17"/>
<vehicle id="vehicle_315" depart="975.00" route="route_5"/>
<vehicle id="vehicle_316" depart="975.00" route="route_5"/>
<vehicle id="vehicle_317" depart="975.00" route="route_5"/>
<vehicle id="vehicle_318" depart="980.00" route="route_12"/>
<vehicle id="vehicle_319" depart="980.00" route="route_12"/>
<vehicle id="vehicle_320" depart="980.00" route="route_12"/>
<vehicle id="vehicle_321" depart="982.00" route="route_5"/>
<vehicle id="vehicle_322" depart="982.00" route="route_5"/>
<vehicle id="vehicle_323" depart="982.00" route="route_5"/>
<vehicle id="vehicle_324" depart="982.00" route="route_5"/>
<vehicle id="vehicle_325" depart="982.00" route="route_5"/>
<vehicle id="vehicle_326" type="bus" depart="994.00" route="route_15"/>
<vehicle id="vehicle_327" depart="998.00" route="route_12"/>
<vehicle id="vehicle_328" depart="998.00" route="route_12"/>
<vehicle id="vehicle_329" depart="998.00" route="route_12"/>
<vehicle id="vehicle_330" depart="998.00" route="route_12"/>
<vehicle id="vehicle_331" depart="998.00" route="route_12"/>
<vehicle id="vehicle_332" depart="998.00" route="route_12"/>
<vehicle id="vehicle_333" depart="998.00" route="route_12"/>
<vehicle id="vehicle_334" depart="998.00" route="route_12"/>
<vehicle id="vehicle_335" depart="1007.00" route="route_5"/>
<vehicle id="vehicle_336" depart="1009.00" route="route_12"/>
<vehicle id="vehicle_337" depart="1009.00" route="route_12"/>
<vehicle id="vehicle_338" depart="1009.00" route="route_12"/>
<vehicle id="vehicle_339" depart="1032.00" route="route_5"/>
<vehicle id="vehicle_340" depart="1032.00" route="route_5"/>
<vehicle id="vehicle_341" depart="1032.00" route="route_5"/>
<vehicle id="vehicle_342" depart="1032.00" route="route_5"/>
<vehicle id="vehicle_343" depart="1032.00" route="route_5"/>
<vehicle id="vehicle_344" depart="1040.00" route="route_12"/>
<vehicle id="vehicle_345" depart="1040.00" route="route_12"/>
<vehicle id="vehicle_346" depart="1040.00" route="route_5"/>
<vehicle id="vehicle_347" depart="1040.00" route="route_5"/>
<vehicle id="vehicle_348" depart="1040.00" route="route_5"/>
<vehicle id="vehicle_349" depart="1040.00" route="route_5"/>
<vehicle id="vehicle_350" depart="1040.00" route="route_5"/>
<vehicle id="vehicle_351" depart="1045.00" route="route_6"/>
<vehicle id="vehicle_352" depart="1051.00" route="route_5"/>
<vehicle id="vehicle_353" depart="1051.00" route="route_5"/>
<vehicle id="vehicle_354" depart="1060.00" route="route_12"/>
<vehicle id="vehicle_355" depart="1060.00" route="route_12"/>
<vehicle id="vehicle_356" depart="1060.00" route="route_12"/>
<vehicle id="vehicle_357" depart="1065.00" route="route_5"/>
<vehicle id="vehicle_358" type="bus" depart="1087.00" route="route_17"/>
<vehicle id="vehicle_359" depart="1105.00" route="route_12"/>
<vehicle id="vehicle_360" depart="1105.00" route="route_12"/>
<vehicle id="vehicle_361" depart="1105.00" route="route_12"/>
<vehicle id="vehicle_362" depart="1108.00" route="route_5"/>
<vehicle id="vehicle_363" depart="1108.00" route="route_5"/>
<vehicle id="vehicle_364" depart="1108.00" route="route_5"/>
<vehicle id="vehicle_365" depart="1108.00" route="route_5"/>
<vehicle id="vehicle_366" depart="1117.00" route="route_6"/>
<vehicle id="vehicle_367" depart="1128.00" route="route_12"/>
<vehicle id="vehicle_368" depart="1130.00" route="route_5"/>
<vehicle id="vehicle_369" depart="1139.00" route="route_12"/>
<vehicle id="vehicle_370" depart="1154.00" route="route_5"/>
<vehicle id="vehicle_371" depart="1160.00" route="route_12"/>
<vehicle id="vehicle_372" depart="1160.00" route="route_12"/>
<vehicle id="vehicle_373" depart="1160.00" route="route_12"/>
<vehicle id="vehicle_374" depart="1160.00" route="route_12"/>
<vehicle id="vehicle_375" depart="1160.00" route="route_12"/>
<vehicle id="vehicle_376" depart="1160.00" route="route_12"/>
<vehicle id="vehicle_377" depart="1160.00" route="route_12"/>
<vehicle id="vehicle_378" depart="1161.00" route="route_7"/>
<vehicle id="vehicle_379" depart="1169.00" route="route_6"/>
<vehicle id="vehicle_380" depart="1169.00" route="route_6"/>
<vehicle id="vehicle_381" depart="1174.00" route="route_9"/>
<vehicle id="vehicle_382" type="bus" depart="1177.00" route="route_16"/>
<vehicle id="vehicle_383" type="tram" depart="1180.00" route="route_20"/>
<vehicle id="vehicle_384" depart="1189.00" route="route_5"/>
<vehicle id="vehicle_385" depart="1189.00" route="route_5"/>
<vehicle id="vehicle_386" depart="1189.00" route="route_5"/>
<vehicle id="vehicle_387" depart="1189.00" route="route_5"/>
<vehicle id="vehicle_388" depart="1189.00" route="route_12"/>
<vehicle id="vehicle_389" depart="1189.00" route="route_12"/>
<vehicle id="vehicle_390" depart="1189.00" route="route_12"/>
<vehicle id="vehicle_391" depart="1189.00" route="route_12"/>
<vehicle id="vehicle_392" depart="1189.00" route="route_12"/>
<vehicle id="vehicle_393" depart="1200.00" route="route_12"/>
<vehicle id="vehicle_394" depart="1200.00" route="route_12"/>
<vehicle id="vehicle_395" depart="1200.00" route="route_12"/>
<vehicle id="vehicle_396" depart="1203.00" route="route_12"/>
<vehicle id="vehicle_397" depart="1203.00" route="route_12"/>
<vehicle id="vehicle_398" depart="1203.00" route="route_12"/>
<vehicle id="vehicle_399" depart="1209.00" route="route_5"/>
<vehicle id="vehicle_400" depart="1209.00" route="route_5"/>
<vehicle id="vehicle_401" depart="1209.00" route="route_5"/>
<vehicle id="vehicle_402" depart="1209.00" route="route_5"/>
<vehicle id="vehicle_403" depart="1209.00" route="route_5"/>
<vehicle id="vehicle_404" depart="1209.00" route="route_5"/>
<vehicle id="vehicle_405" depart="1209.00" route="route_5"/>
<vehicle id="vehicle_406" depart="1209.00" route="route_5"/>
<vehicle id="vehicle_407" type="bus" depart="1215.00" route="route_19"/>
<vehicle id="vehicle_408" depart="1221.00" route="route_5"/>
<vehicle id="vehicle_409" depart="1221.00" route="route_5"/>
<vehicle id="vehicle_410" depart="1221.00" route="route_5"/>
<vehicle id="vehicle_411" depart="1221.00" route="route_5"/>
<vehicle id="vehicle_412" depart="1232.00" route="route_2"/>
<vehicle id="vehicle_413" depart="1242.00" route="route_0"/>
<vehicle id="vehicle_414" depart="1248.00" route="route_3"/>
<vehicle id="vehicle_415" depart="1248.00" route="route_3"/>
<vehicle id="vehicle_416" depart="1248.00" route="route_3"/>
<vehicle id="vehicle_417" type="tram" depart="1249.00" route="route_20"/>
<vehicle id="vehicle_418" depart="1256.00" route="route_5"/>
<vehicle id="vehicle_419" depart="1267.00" route="route_12"/>
<vehicle id="vehicle_420" depart="1267.00" route="route_12"/>
<vehicle id="vehicle_421" depart="1267.00" route="route_12"/>
<vehicle id="vehicle_422" depart="1267.00" route="route_12"/>