<?xml version="1.0" encoding="UTF-8"?>

<!-- scaled to 75% by traffic_amplifier.py -->

<routes xmlns:xsi="http://www.w3.org/2001/XMLSchema-instance" xsi:noNamespaceSchemaLocation="http://sumo.dlr.de/xsd/routes_file.xsd">
    <!-- Routes -->
    <route id="r_ew" edges="E2 E3 -E5"/>
    <route id="r_se" edges="E4 E0 E1 -E2"/>
    <route id="r_sw" edges="E4 E0 E1 E3"/>
    <route id="r_we" edges="E5 -E3 -E2"/>
  <vehicle id="vehicle_1" depart="0.00" route="r_ew"/>
  <vehicle id="vehicle_2" depart="0.00" route="r_ew"/>
  <vehicle id="vehicle_3" depart="0.00" route="r_se"/>
  <vehicle id="vehicle_4" depart="0.00" route="r_sw"/>
  <vehicle id="vehicle_5" depart="0.00" route="r_we"/>
  <vehicle id="vehicle_6" depart="0.00" route="r_we"/>
  <vehicle id="vehicle_7" depart="7.50" route="r_we"/>
  <vehicle id="vehicle_8" depart="10.00" route="r_ew"/>
  <vehicle id="vehicle_9" depart="12.00" route="r_we"/>
  <vehicle id="vehicle_10" depart="15.00" route="r_ew"/>
  <vehicle id="vehicle_11" depart="15.00" route="r_se"/>
  <vehicle id="vehicle_12" depart="15.00" route="r_sw"/>
  <vehicle id="vehicle_13" depart="15.00" route="r_we"/>
  <vehicle id="vehicle_14" depart="20.00" route="r_ew"/>
  <vehicle id="vehicle_15" depart="22.50" route="r_we"/>
  <vehicle id="vehicle_16" depart="24.00" route="r_we"/>
  <vehicle id="vehicle_17" depart="30.00" route="r_ew"/>
  <vehicle id="vehicle_18" depart="30.00" route="r_ew"/>
  <vehicle id="vehicle_19" depart="30.00" route="r_we"/>
  <vehicle id="vehicle_20" depart="35.00" route="r_ew"/>
  <vehicle id="vehicle_21" depart="36.00" route="r_we"/>
  <vehicle id="vehicle_22" depart="37.50" route="r_we"/>
  <vehicle id="vehicle_23" depart="42.00" route="r_we"/>
  <vehicle id="vehicle_24" depart="45.00" route="r_ew"/>
  <vehicle id="vehicle_25" depart="45.00" route="r_se"/>
  <vehicle id="vehicle_26" depart="45.00" route="r_sw"/>
  <vehicle id="vehicle_27" depart="48.00" route="r_we"/>
  <vehicle id="vehicle_28" depart="50.00" route="r_ew"/>
  <vehicle id="vehicle_29" depart="52.50" route="r_we"/>
  <vehicle id="vehicle_30" depart="54.00" route="r_we"/>
  <vehicle id="vehicle_31" depart="55.00" route="r_ew"/>
  <vehicle id="vehicle_32" depart="60.00" route="r_ew"/>
  <vehicle id="vehicle_33" depart="60.00" route="r_se"/>
  <vehicle id="vehicle_34" depart="60.00" route="r_sw"/>
  <vehicle id="vehicle_35" depart="60.00" route="r_we"/>
  <vehicle id="vehicle_36" depart="65.45" route="r_we"/>
  <vehicle id="vehicle_37" depart="70.00" route="r_ew"/>
  <vehicle id="vehicle_38" depart="70.00" route="r_ew"/>
  <vehicle id="vehicle_39" depart="70.91" route="r_we"/>
  <vehicle id="vehicle_40" depart="76.36" route="r_we"/>
  <vehicle id="vehicle_41" depart="80.00" route="r_ew"/>
  <vehicle id="vehicle_42" depart="80.00" route="r_se"/>
  <vehicle id="vehicle_43" depart="81.82" route="r_we"/>
  <vehicle id="vehicle_44" depart="84.00" route="r_we"/>
  <vehicle id="vehicle_45" depart="90.00" route="r_ew"/>
  <vehicle id="vehicle_46" depart="90.00" route="r_ew"/>
  <vehicle id="vehicle_47" depart="90.00" route="r_sw"/>
  <vehicle id="vehicle_48" depart="92.73" route="r_we"/>
  <vehicle id="vehicle_49" depart="96.00" route="r_we"/>
  <vehicle id="vehicle_50" depart="98.18" route="r_we"/>
  <vehicle id="vehicle_51" depart="100.00" route="r_ew"/>
  <vehicle id="vehicle_52" depart="108.00" route="r_we"/>
  <vehicle id="vehicle_53" depart="109.09" route="r_we"/>
  <vehicle id="vehicle_54" depart="110.00" route="r_ew"/>
  <vehicle id="vehicle_55" depart="110.00" route="r_ew"/>
  <vehicle id="vehicle_56" depart="114.55" route="r_we"/>
  <vehicle id="vehicle_57" depart="120.00" route="r_ew"/>
  <vehicle id="vehicle_58" depart="120.00" route="r_se"/>
  <vehicle id="vehicle_59" depart="120.00" route="r_we"/>
  <vehicle id="vehicle_60" depart="125.45" route="r_we"/>
  <vehicle id="vehicle_61" depart="128.57" route="r_we"/>
  <vehicle id="vehicle_62" depart="130.00" route="r_ew"/>
  <vehicle id="vehicle_63" depart="135.00" route="r_ew"/>
  <vehicle id="vehicle_64" depart="136.36" route="r_we"/>
  <vehicle id="vehicle_65" depart="137.14" route="r_we"/>
  <vehicle id="vehicle_66" depart="140.00" route="r_sw"/>
  <vehicle id="vehicle_67" depart="141.82" route="r_we"/>
  <vehicle id="vehicle_68" depart="147.27" route="r_we"/>
  <vehicle id="vehicle_69" depart="150.00" route="r_ew"/>
  <vehicle id="vehicle_70" depart="150.00" route="r_ew"/>
  <vehicle id="vehicle_71" depart="152.73" route="r_we"/>
  <vehicle id="vehicle_72" depart="154.29" route="r_we"/>
  <vehicle id="vehicle_73" depart="160.00" route="r_ew"/>
  <vehicle id="vehicle_74" depart="160.00" route="r_sw"/>
  <vehicle id="vehicle_75" depart="162.86" route="r_we"/>
  <vehicle id="vehicle_76" depart="163.64" route="r_we"/>
  <vehicle id="vehicle_77" depart="169.09" route="r_we"/>
  <vehicle id="vehicle_78" depart="170.00" route="r_ew"/>
  <vehicle id="vehicle_79" depart="174.55" route="r_we"/>
  <vehicle id="vehicle_80" depart="180.00" route="r_ew"/>
  <vehicle id="vehicle_81" depart="180.00" route="r_ew"/>
  <vehicle id="vehicle_82" depart="180.00" route="r_sw"/>
  <vehicle id="vehicle_83" depart="180.00" route="r_we"/>
  <vehicle id="vehicle_84" depart="180.00" route="r_we"/>
  <vehicle id="vehicle_85" depart="187.50" route="r_we"/>
  <vehicle id="vehicle_86" depart="188.57" route="r_sw"/>
  <vehicle id="vehicle_87" depart="192.00" route="r_ew"/>
  <vehicle id="vehicle_88" depart="192.00" route="r_ew"/>
  <vehicle id="vehicle_89" depart="192.00" route="r_we"/>
  <vehicle id="vehicle_90" depart="195.00" route="r_we"/>
  <vehicle id="vehicle_91" depart="197.14" route="r_sw"/>
  <vehicle id="vehicle_92" depart="198.00" route="r_ew"/>
  <vehicle id="vehicle_93" depart="202.50" route="r_we"/>
  <vehicle id="vehicle_94" depart="204.00" route="r_ew"/>
  <vehicle id="vehicle_95" depart="204.00" route="r_we"/>
  <vehicle id="vehicle_96" depart="205.71" route="r_sw"/>
  <vehicle id="vehicle_97" depart="210.00" route="r_ew"/>
  <vehicle id="vehicle_98" depart="210.00" route="r_we"/>
  <vehicle id="vehicle_99" depart="216.00" route="r_ew"/>
  <vehicle id="vehicle_100" depart="216.00" route="r_we"/>
  <vehicle id="vehicle_101" depart="217.50" route="r_we"/>
  <vehicle id="vehicle_102" depart="222.00" route="r_ew"/>
  <vehicle id="vehicle_103" depart="222.00" route="r_we"/>
  <vehicle id="vehicle_104" depart="222.86" route="r_sw"/>
  <vehicle id="vehicle_105" depart="228.00" route="r_ew"/>
  <vehicle id="vehicle_106" depart="228.00" route="r_ew"/>
  <vehicle id="vehicle_107" depart="228.00" route="r_we"/>
  <vehicle id="vehicle_108" depart="231.43" route="r_sw"/>
  <vehicle id="vehicle_109" depart="232.50" route="r_we"/>
  <vehicle id="vehicle_110" depart="234.00" route="r_we"/>
  <vehicle id="vehicle_111" depart="240.00" route="r_ew"/>
  <vehicle id="vehicle_112" depart="240.00" route="r_ew"/>
  <vehicle id="vehicle_113" depart="240.00" route="r_se"/>
  <vehicle id="vehicle_114" depart="240.00" route="r_sw"/>
  <vehicle id="vehicle_115" depart="240.00" route="r_we"/>
  <vehicle id="vehicle_116" depart="246.00" route="r_we"/>
  <vehicle id="vehicle_117" depart="247.50" route="r_ew"/>
  <vehicle id="vehicle_118" depart="250.00" route="r_we"/>
  <vehicle id="vehicle_119" depart="255.00" route="r_ew"/>
  <vehicle id="vehicle_120" depart="255.00" route="r_sw"/>
  <vehicle id="vehicle_121" depart="257.14" route="r_ew"/>
  <vehicle id="vehicle_122" depart="258.00" route="r_we"/>
  <vehicle id="vehicle_123" depart="260.00" route="r_we"/>
  <vehicle id="vehicle_124" depart="262.50" route="r_ew"/>
  <vehicle id="vehicle_125" depart="264.00" route="r_we"/>
  <vehicle id="vehicle_126" depart="270.00" route="r_ew"/>
  <vehicle id="vehicle_127" depart="270.00" route="r_se"/>
  <vehicle id="vehicle_128" depart="270.00" route="r_sw"/>
  <vehicle id="vehicle_129" depart="270.00" route="r_sw"/>
  <vehicle id="vehicle_130" depart="270.00" route="r_we"/>
  <vehicle id="vehicle_131" depart="274.29" route="r_ew"/>
  <vehicle id="vehicle_132" depart="276.00" route="r_we"/>
  <vehicle id="vehicle_133" depart="277.50" route="r_ew"/>
  <vehicle id="vehicle_134" depart="280.00" route="r_we"/>
  <vehicle id="vehicle_135" depart="285.00" route="r_ew"/>
  <vehicle id="vehicle_136" depart="288.00" route="r_we"/>
  <vehicle id="vehicle_137" depart="290.00" route="r_we"/>
  <vehicle id="vehicle_138" depart="291.43" route="r_ew"/>
  <vehicle id="vehicle_139" depart="292.50" route="r_ew"/>
  <vehicle id="vehicle_140" depart="294.00" route="r_we"/>
  <vehicle id="vehicle_141" depart="300.00" route="r_ew"/>
  <vehicle id="vehicle_142" depart="300.00" route="r_sw"/>
  <vehicle id="vehicle_143" depart="300.00" route="r_we"/>
  <vehicle id="vehicle_144" depart="306.67" route="r_ew"/>
  <vehicle id="vehicle_145" depart="307.50" route="r_we"/>
  <vehicle id="vehicle_146" depart="308.57" route="r_we"/>
  <vehicle id="vehicle_147" depart="310.00" route="r_ew"/>
  <vehicle id="vehicle_148" depart="317.14" route="r_we"/>
  <vehicle id="vehicle_149" depart="320.00" route="r_ew"/>
  <vehicle id="vehicle_150" depart="320.00" route="r_ew"/>
  <vehicle id="vehicle_151" depart="322.50" route="r_we"/>
  <vehicle id="vehicle_152" depart="325.71" route="r_we"/>
  <vehicle id="vehicle_153" depart="326.67" route="r_ew"/>
  <vehicle id="vehicle_154" depart="333.33" route="r_ew"/>
  <vehicle id="vehicle_155" depart="334.29" route="r_we"/>
  <vehicle id="vehicle_156" depart="337.50" route="r_we"/>
  <vehicle id="vehicle_157" depart="340.00" route="r_ew"/>
  <vehicle id="vehicle_158" depart="340.00" route="r_ew"/>
  <vehicle id="vehicle_159" depart="342.86" route="r_we"/>
  <vehicle id="vehicle_160" depart="350.00" route="r_ew"/>
  <vehicle id="vehicle_161" depart="351.43" route="r_we"/>
  <vehicle id="vehicle_162" depart="352.50" route="r_we"/>
  <vehicle id="vehicle_163" depart="353.33" route="r_ew"/>
  <vehicle id="vehicle_164" depart="360.00" route="r_ew"/>
  <vehicle id="vehicle_165" depart="360.00" route="r_se"/>
  <vehicle id="vehicle_166" depart="360.00" route="r_sw"/>
  <vehicle id="vehicle_167" depart="360.00" route="r_we"/>
  <vehicle id="vehicle_168" depart="366.00" route="r_ew"/>
  <vehicle id="vehicle_169" depart="366.00" route="r_we"/>
  <vehicle id="vehicle_170" depart="370.00" route="r_ew"/>
  <vehicle id="vehicle_171" depart="372.00" route="r_ew"/>
  <vehicle id="vehicle_172" depart="372.00" route="r_sw"/>
  <vehicle id="vehicle_173" depart="372.00" route="r_we"/>
  <vehicle id="vehicle_174" depart="372.00" route="r_we"/>
  <vehicle id="vehicle_175" depart="380.00" route="r_ew"/>
  <vehicle id="vehicle_176" depart="384.00" route="r_ew"/>
  <vehicle id="vehicle_177" depart="384.00" route="r_we"/>
  <vehicle id="vehicle_178" depart="384.00" route="r_we"/>
  <vehicle id="vehicle_179" depart="390.00" route="r_ew"/>
  <vehicle id="vehicle_180" depart="390.00" route="r_se"/>
  <vehicle id="vehicle_181" depart="390.00" route="r_we"/>
  <vehicle id="vehicle_182" depart="396.00" route="r_ew"/>
  <vehicle id="vehicle_183" depart="396.00" route="r_sw"/>
  <vehicle id="vehicle_184" depart="396.00" route="r_we"/>
  <vehicle id="vehicle_185" depart="400.00" route="r_ew"/>
  <vehicle id="vehicle_186" depart="402.00" route="r_ew"/>
  <vehicle id="vehicle_187" depart="402.00" route="r_we"/>
  <vehicle id="vehicle_188" depart="408.00" route="r_sw"/>
  <vehicle id="vehicle_189" depart="408.00" route="r_we"/>
  <vehicle id="vehicle_190" depart="410.00" route="r_ew"/>
  <vehicle id="vehicle_191" depart="414.00" route="r_ew"/>
  <vehicle id="vehicle_192" depart="414.00" route="r_we"/>
  <vehicle id="vehicle_193" depart="420.00" route="r_ew"/>
  <vehicle id="vehicle_194" depart="420.00" route="r_se"/>
  <vehicle id="vehicle_195" depart="420.00" route="r_sw"/>
  <vehicle id="vehicle_196" depart="420.00" route="r_we"/>
  <vehicle id="vehicle_197" depart="420.00" route="r_we"/>
  <vehicle id="vehicle_198" depart="425.45" route="r_ew"/>
  <vehicle id="vehicle_199" depart="430.00" route="r_ew"/>
  <vehicle id="vehicle_200" depart="430.00" route="r_we"/>
  <vehicle id="vehicle_201" depart="430.91" route="r_ew"/>
  <vehicle id="vehicle_202" depart="430.91" route="r_we"/>
  <vehicle id="vehicle_203" depart="436.36" route="r_we"/>
  <vehicle id="vehicle_204" depart="440.00" route="r_ew"/>
  <vehicle id="vehicle_205" depart="441.82" route="r_ew"/>
  <vehicle id="vehicle_206" depart="441.82" route="r_we"/>
  <vehicle id="vehicle_207" depart="447.27" route="r_ew"/>
  <vehicle id="vehicle_208" depart="447.27" route="r_we"/>
  <vehicle id="vehicle_209" depart="450.00" route="r_we"/>
  <vehicle id="vehicle_210" depart="452.73" route="r_ew"/>
  <vehicle id="vehicle_211" depart="458.18" route="r_ew"/>
  <vehicle id="vehicle_212" depart="458.18" route="r_we"/>
  <vehicle id="vehicle_213" depart="460.00" route="r_ew"/>
  <vehicle id="vehicle_214" depart="460.00" route="r_sw"/>
  <vehicle id="vehicle_215" depart="460.00" route="r_we"/>
  <vehicle id="vehicle_216" depart="463.64" route="r_we"/>
  <vehicle id="vehicle_217" depart="469.09" route="r_ew"/>
  <vehicle id="vehicle_218" depart="470.00" route="r_ew"/>
  <vehicle id="vehicle_219" depart="470.00" route="r_we"/>
  <vehicle id="vehicle_220" depart="474.55" route="r_ew"/>
  <vehicle id="vehicle_221" depart="474.55" route="r_we"/>
  <vehicle id="vehicle_222" depart="480.00" route="r_ew"/>
  <vehicle id="vehicle_223" depart="480.00" route="r_sw"/>
  <vehicle id="vehicle_224" depart="480.00" route="r_sw"/>
  <vehicle id="vehicle_225" depart="480.00" route="r_we"/>
  <vehicle id="vehicle_226" depart="485.00" route="r_we"/>
  <vehicle id="vehicle_227" depart="486.00" route="r_ew"/>
  <vehicle id="vehicle_228" depart="490.00" route="r_we"/>
  <vehicle id="vehicle_229" depart="492.00" route="r_ew"/>
  <vehicle id="vehicle_230" depart="492.00" route="r_we"/>
  <vehicle id="vehicle_231" depart="498.00" route="r_ew"/>
  <vehicle id="vehicle_232" depart="500.00" route="r_we"/>
  <vehicle id="vehicle_233" depart="504.00" route="r_ew"/>
  <vehicle id="vehicle_234" depart="504.00" route="r_ew"/>
  <vehicle id="vehicle_235" depart="504.00" route="r_we"/>
  <vehicle id="vehicle_236" depart="505.00" route="r_we"/>
  <vehicle id="vehicle_237" depart="510.00" route="r_se"/>
  <vehicle id="vehicle_238" depart="515.00" route="r_we"/>
  <vehicle id="vehicle_239" depart="516.00" route="r_ew"/>
  <vehicle id="vehicle_240" depart="516.00" route="r_ew"/>
  <vehicle id="vehicle_241" depart="516.00" route="r_we"/>
  <vehicle id="vehicle_242" depart="520.00" route="r_we"/>
  <vehicle id="vehicle_243" depart="522.00" route="r_ew"/>
  <vehicle id="vehicle_244" depart="528.00" route="r_ew"/>
  <vehicle id="vehicle_245" depart="528.00" route="r_we"/>
  <vehicle id="vehicle_246" depart="530.00" route="r_we"/>
  <vehicle id="vehicle_247" depart="534.00" route="r_ew"/>
  <vehicle id="vehicle_248" depart="535.00" route="r_we"/>
  <vehicle id="vehicle_249" depart="540.00" route="r_ew"/>
  <vehicle id="vehicle_250" depart="540.00" route="r_se"/>
  <vehicle id="vehicle_251" depart="540.00" route="r_sw"/>
  <vehicle id="vehicle_252" depart="540.00" route="r_we"/>
  <vehicle id="vehicle_253" depart="544.62" route="r_we"/>
  <vehicle id="vehicle_254" depart="546.00" route="r_ew"/>
  <vehicle id="vehicle_255" depart="546.67" route="r_ew"/>
  <vehicle id="vehicle_256" depart="546.67" route="r_we"/>
  <vehicle id="vehicle_257" depart="550.00" route="r_sw"/>
  <vehicle id="vehicle_258" depart="552.00" route="r_ew"/>
  <vehicle id="vehicle_259" depart="553.33" route="r_we"/>
  <vehicle id="vehicle_260" depart="553.85" route="r_we"/>
  <vehicle id="vehicle_261" depart="558.00" route="r_ew"/>
  <vehicle id="vehicle_262" depart="558.46" route="r_we"/>
  <vehicle id="vehicle_263" depart="560.00" route="r_ew"/>
  <vehicle id="vehicle_264" depart="560.00" route="r_sw"/>
  <vehicle id="vehicle_265" depart="563.08" route="r_we"/>
  <vehicle id="vehicle_266" depart="564.00" route="r_ew"/>
  <vehicle id="vehicle_267" depart="566.67" route="r_we"/>
  <vehicle id="vehicle_268" depart="567.69" route="r_we"/>
  <vehicle id="vehicle_269" depart="570.00" route="r_ew"/>
  <vehicle id="vehicle_270" depart="570.00" route="r_se"/>
  <vehicle id="vehicle_271" depart="573.33" route="r_ew"/>
  <vehicle id="vehicle_272" depart="573.33" route="r_we"/>
  <vehicle id="vehicle_273" depart="576.00" route="r_ew"/>
  <vehicle id="vehicle_274" depart="576.92" route="r_we"/>
  <vehicle id="vehicle_275" depart="580.00" route="r_sw"/>
  <vehicle id="vehicle_276" depart="580.00" route="r_we"/>
  <vehicle id="vehicle_277" depart="582.00" route="r_ew"/>
  <vehicle id="vehicle_278" depart="586.15" route="r_we"/>
  <vehicle id="vehicle_279" depart="586.67" route="r_ew"/>
  <vehicle id="vehicle_280" depart="586.67" route="r_we"/>
  <vehicle id="vehicle_281" depart="588.00" route="r_ew"/>
  <vehicle id="vehicle_282" depart="590.00" route="r_sw"/>
  <vehicle id="vehicle_283" depart="590.77" route="r_we"/>
  <vehicle id="vehicle_284" depart="594.00" route="r_ew"/>
  <vehicle id="vehicle_285" depart="595.38" route="r_we"/>
  <vehicle id="vehicle_286" depart="600.00" route="r_ew"/>
  <vehicle id="vehicle_287" depart="600.00" route="r_ew"/>
  <vehicle id="vehicle_288" depart="600.00" route="r_we"/>
  <vehicle id="vehicle_289" depart="600.00" route="r_we"/>
  <vehicle id="vehicle_290" depart="610.00" route="r_ew"/>
  <vehicle id="vehicle_291" depart="610.00" route="r_sw"/>
  <vehicle id="vehicle_292" depart="612.00" route="r_ew"/>
  <vehicle id="vehicle_293" depart="612.00" route="r_we"/>
  <vehicle id="vehicle_294" depart="615.00" route="r_se"/>
  <vehicle id="vehicle_295" depart="617.14" route="r_we"/>
  <vehicle id="vehicle_296" depart="618.00" route="r_ew"/>
  <vehicle id="vehicle_297" depart="620.00" route="r_sw"/>
  <vehicle id="vehicle_298" depart="624.00" route="r_ew"/>
  <vehicle id="vehicle_299" depart="624.00" route="r_we"/>
  <vehicle id="vehicle_300" depart="630.00" route="r_ew"/>
  <vehicle id="vehicle_301" depart="630.00" route="r_ew"/>
  <vehicle id="vehicle_302" depart="630.00" route="r_se"/>
  <vehicle id="vehicle_303" depart="630.00" route="r_sw"/>
  <vehicle id="vehicle_304" depart="634.29" route="r_we"/>
  <vehicle id="vehicle_305" depart="636.00" route="r_we"/>
  <vehicle id="vehicle_306" depart="640.00" route="r_ew"/>
  <vehicle id="vehicle_307" depart="642.00" route="r_ew"/>
  <vehicle id="vehicle_308" depart="642.86" route="r_we"/>
  <vehicle id="vehicle_309" depart="645.00" route="r_se"/>
  <vehicle id="vehicle_310" depart="648.00" route="r_ew"/>
  <vehicle id="vehicle_311" depart="650.00" route="r_sw"/>
  <vehicle id="vehicle_312" depart="651.43" route="r_we"/>
  <vehicle id="vehicle_313" depart="654.00" route="r_ew"/>
  <vehicle id="vehicle_314" depart="660.00" route="r_ew"/>
  <vehicle id="vehicle_315" depart="660.00" route="r_ew"/>
  <vehicle id="vehicle_316" depart="660.00" route="r_sw"/>
  <vehicle id="vehicle_317" depart="660.00" route="r_we"/>
  <vehicle id="vehicle_318" depart="660.00" route="r_we"/>
  <vehicle id="vehicle_319" depart="668.57" route="r_sw"/>
  <vehicle id="vehicle_320" depart="675.00" route="r_se"/>
  <vehicle id="vehicle_321" depart="675.00" route="r_we"/>
  <vehicle id="vehicle_322" depart="680.00" route="r_ew"/>
  <vehicle id="vehicle_323" depart="680.00" route="r_we"/>
  <vehicle id="vehicle_324" depart="682.50" route="r_we"/>
  <vehicle id="vehicle_325" depart="685.71" route="r_sw"/>
  <vehicle id="vehicle_326" depart="690.00" route="r_ew"/>
  <vehicle id="vehicle_327" depart="690.00" route="r_se"/>
  <vehicle id="vehicle_328" depart="694.29" route="r_sw"/>
  <vehicle id="vehicle_329" depart="697.50" route="r_we"/>
  <vehicle id="vehicle_330" depart="700.00" route="r_ew"/>
  <vehicle id="vehicle_331" depart="700.00" route="r_we"/>
  <vehicle id="vehicle_332" depart="702.86" route="r_sw"/>
  <vehicle id="vehicle_333" depart="705.00" route="r_se"/>
  <vehicle id="vehicle_334" depart="705.00" route="r_we"/>
  <vehicle id="vehicle_335" depart="720.00" route="r_ew"/>
  <vehicle id="vehicle_336" depart="720.00" route="r_ew"/>
  <vehicle id="vehicle_337" depart="720.00" route="r_sw"/>
  <vehicle id="vehicle_338" depart="720.00" route="r_sw"/>
  <vehicle id="vehicle_339" depart="720.00" route="r_we"/>
  <vehicle id="vehicle_340" depart="720.00" route="r_we"/>
  <vehicle id="vehicle_341" depart="727.50" route="r_we"/>
  <vehicle id="vehicle_342" depart="728.57" route="r_sw"/>
  <vehicle id="vehicle_343" depart="730.00" route="r_ew"/>
  <vehicle id="vehicle_344" depart="735.00" route="r_we"/>
  <vehicle id="vehicle_345" depart="740.00" route="r_ew"/>
  <vehicle id="vehicle_346" depart="740.00" route="r_se"/>
  <vehicle id="vehicle_347" depart="742.50" route="r_we"/>
  <vehicle id="vehicle_348" depart="744.00" route="r_ew"/>
  <vehicle id="vehicle_349" depart="745.71" route="r_sw"/>
  <vehicle id="vehicle_350" depart="750.00" route="r_ew"/>
  <vehicle id="vehicle_351" depart="750.00" route="r_we"/>
  <vehicle id="vehicle_352" depart="754.29" route="r_sw"/>
  <vehicle id="vehicle_353" depart="757.50" route="r_we"/>
  <vehicle id="vehicle_354" depart="760.00" route="r_ew"/>
  <vehicle id="vehicle_355" depart="760.00" route="r_se"/>
  <vehicle id="vehicle_356" depart="762.86" route="r_sw"/>
  <vehicle id="vehicle_357" depart="765.00" route="r_we"/>
  <vehicle id="vehicle_358" depart="765.00" route="r_we"/>
  <vehicle id="vehicle_359" depart="768.00" route="r_ew"/>
  <vehicle id="vehicle_360" depart="770.00" route="r_ew"/>
  <vehicle id="vehicle_361" depart="780.00" route="r_ew"/>
  <vehicle id="vehicle_362" depart="780.00" route="r_se"/>
  <vehicle id="vehicle_363" depart="780.00" route="r_sw"/>
  <vehicle id="vehicle_364" depart="780.00" route="r_sw"/>
  <vehicle id="vehicle_365" depart="780.00" route="r_we"/>
  <vehicle id="vehicle_366" depart="780.00" route="r_we"/>
  <vehicle id="vehicle_367" depart="786.67" route="r_we"/>
  <vehicle id="vehicle_368" depart="787.50" route="r_ew"/>
  <vehicle id="vehicle_369" depart="788.57" route="r_ew"/>
  <vehicle id="vehicle_370" depart="793.33" route="r_we"/>
  <vehicle id="vehicle_371" depart="797.14" route="r_ew"/>
  <vehicle id="vehicle_372" depart="797.14" route="r_we"/>
  <vehicle id="vehicle_373" depart="800.00" route="r_we"/>
  <vehicle id="vehicle_374" depart="802.50" route="r_ew"/>
  <vehicle id="vehicle_375" depart="806.67" route="r_we"/>
  <vehicle id="vehicle_376" depart="810.00" route="r_ew"/>
  <vehicle id="vehicle_377" depart="813.33" route="r_we"/>
  <vehicle id="vehicle_378" depart="814.29" route="r_ew"/>
  <vehicle id="vehicle_379" depart="814.29" route="r_we"/>
  <vehicle id="vehicle_380" depart="817.50" route="r_ew"/>
  <vehicle id="vehicle_381" depart="822.86" route="r_we"/>
  <vehicle id="vehicle_382" depart="825.00" route="r_ew"/>
  <vehicle id="vehicle_383" depart="826.67" route="r_we"/>
  <vehicle id="vehicle_384" depart="831.43" route="r_ew"/>
  <vehicle id="vehicle_385" depart="831.43" route="r_we"/>
  <vehicle id="vehicle_386" depart="832.50" route="r_ew"/>
  <vehicle id="vehicle_387" depart="840.00" route="r_ew"/>
  <vehicle id="vehicle_388" depart="840.00" route="r_se"/>
  <vehicle id="vehicle_389" depart="840.00" route="r_sw"/>
  <vehicle id="vehicle_390" depart="840.00" route="r_we"/>
  <vehicle id="vehicle_391" depart="840.00" route="r_we"/>
  <vehicle id="vehicle_392" depart="846.67" route="r_we"/>
  <vehicle id="vehicle_393" depart="847.50" route="r_ew"/>
  <vehicle id="vehicle_394" depart="848.57" route="r_ew"/>
  <vehicle id="vehicle_395" depart="853.33" route="r_we"/>
  <vehicle id="vehicle_396" depart="855.00" route="r_se"/>
  <vehicle id="vehicle_397" depart="857.14" route="r_ew"/>
  <vehicle id="vehicle_398" depart="857.14" route="r_we"/>
  <vehicle id="vehicle_399" depart="860.00" route="r_sw"/>
  <vehicle id="vehicle_400" depart="860.00" route="r_we"/>
  <vehicle id="vehicle_401" depart="862.50" route="r_ew"/>
  <vehicle id="vehicle_402" depart="865.71" route="r_ew"/>
  <vehicle id="vehicle_403" depart="866.67" route="r_we"/>
  <vehicle id="vehicle_404" depart="870.00" route="r_se"/>
  <vehicle id="vehicle_405" depart="870.00" route="r_sw"/>
  <vehicle id="vehicle_406" depart="873.33" route="r_we"/>
  <vehicle id="vehicle_407" depart="874.29" route="r_ew"/>
  <vehicle id="vehicle_408" depart="874.29" route="r_we"/>
  <vehicle id="vehicle_409" depart="877.50" route="r_ew"/>
  <vehicle id="vehicle_410" depart="880.00" route="r_sw"/>
  <vehicle id="vehicle_411" depart="882.86" route="r_ew"/>
  <vehicle id="vehicle_412" depart="882.86" route="r_we"/>
  <vehicle id="vehicle_413" depart="886.67" route="r_we"/>
  <vehicle id="vehicle_414" depart="891.43" route="r_ew"/>
  <vehicle id="vehicle_415" depart="891.43" route="r_we"/>
  <vehicle id="vehicle_416" depart="892.50" route="r_ew"/>
  <vehicle id="vehicle_417" depart="900.00" route="r_ew"/>
  <vehicle id="vehicle_418" depart="900.00" route="r_sw"/>
  <vehicle id="vehicle_419" depart="900.00" route="r_we"/>
  <vehicle id="vehicle_420" depart="900.00" route="r_we"/>
  <vehicle id="vehicle_421" depart="906.67" route="r_we"/>
  <vehicle id="vehicle_422" depart="907.50" route="r_ew"/>
  <vehicle id="vehicle_423" depart="907.50" route="r_ew"/>
  <vehicle id="vehicle_424" depart="913.33" route="r_we"/>
  <vehicle id="vehicle_425" depart="915.00" route="r_ew"/>
  <vehicle id="vehicle_426" depart="917.14" route="r_we"/>
  <vehicle id="vehicle_427" depart="920.00" route="r_we"/>
  <vehicle id="vehicle_428" depart="922.50" route="r_ew"/>
  <vehicle id="vehicle_429" depart="922.50" route="r_ew"/>
  <vehicle id="vehicle_430" depart="926.67" route="r_we"/>
  <vehicle id="vehicle_431" depart="930.00" route="r_ew"/>
  <vehicle id="vehicle_432" depart="933.33" route="r_we"/>
  <vehicle id="vehicle_433" depart="934.29" route="r_we"/>
  <vehicle id="vehicle_434" depart="937.50" route="r_ew"/>
  <vehicle id="vehicle_435" depart="937.50" route="r_ew"/>
  <vehicle id="vehicle_436" depart="942.86" route="r_we"/>
  <vehicle id="vehicle_437" depart="945.00" route="r_ew"/>
  <vehicle id="vehicle_438" depart="946.67" route="r_we"/>
  <vehicle id="vehicle_439" depart="951.43" route="r_we"/>
  <vehicle id="vehicle_440" depart="952.50" route="r_ew"/>
  <vehicle id="vehicle_441" depart="952.50" route="r_ew"/>
  <vehicle id="vehicle_442" depart="960.00" route="r_ew"/>
  <vehicle id="vehicle_443" depart="960.00" route="r_se"/>
  <vehicle id="vehicle_444" depart="960.00" route="r_sw"/>
  <vehicle id="vehicle_445" depart="960.00" route="r_we"/>
  <vehicle id="vehicle_446" depart="960.00" route="r_we"/>
  <vehicle id="vehicle_447" depart="965.45" route="r_ew"/>
  <vehicle id="vehicle_448" depart="965.45" route="r_we"/>
  <vehicle id="vehicle_449" depart="970.91" route="r_ew"/>
  <vehicle id="vehicle_450" depart="972.00" route="r_we"/>
  <vehicle id="vehicle_451" depart="975.00" route="r_ew"/>
  <vehicle id="vehicle_452" depart="976.36" route="r_we"/>
  <vehicle id="vehicle_453" depart="981.82" route="r_ew"/>
  <vehicle id="vehicle_454" depart="981.82" route="r_we"/>
  <vehicle id="vehicle_455" depart="987.27" route="r_ew"/>
  <vehicle id="vehicle_456" depart="987.27" route="r_we"/>
  <vehicle id="vehicle_457" depart="990.00" route="r_ew"/>
  <vehicle id="vehicle_458" depart="990.00" route="r_se"/>
  <vehicle id="vehicle_459" depart="990.00" route="r_sw"/>
  <vehicle id="vehicle_460" depart="992.73" route="r_we"/>
  <vehicle id="vehicle_461" depart="996.00" route="r_we"/>
  <vehicle id="vehicle_462" depart="998.18" route="r_ew"/>
  <vehicle id="vehicle_463" depart="1003.64" route="r_ew"/>
  <vehicle id="vehicle_464" depart="1003.64" route="r_we"/>
  <vehicle id="vehicle_465" depart="1005.00" route="r_ew"/>
  <vehicle id="vehicle_466" depart="1008.00" route="r_we"/>
  <vehicle id="vehicle_467" depart="1009.09" route="r_we"/>
  <vehicle id="vehicle_468" depart="1014.55" route="r_ew"/>
  <vehicle id="vehicle_469" depart="1020.00" route="r_ew"/>
  <vehicle id="vehicle_470" depart="1020.00" route="r_ew"/>
  <vehicle id="vehicle_471" depart="1020.00" route="r_se"/>
  <vehicle id="vehicle_472" depart="1020.00" route="r_we"/>
  <vehicle id="vehicle_473" depart="1020.00" route="r_we"/>
  <vehicle id="vehicle_474" depart="1026.67" route="r_we"/>
  <vehicle id="vehicle_475" depart="1032.00" route="r_sw"/>
  <vehicle id="vehicle_476" depart="1033.33" route="r_we"/>
  <vehicle id="vehicle_477" depart="1040.00" route="r_we"/>
  <vehicle id="vehicle_478" depart="1040.00" route="r_we"/>
  <vehicle id="vehicle_479" depart="1044.00" route="r_ew"/>
  <vehicle id="vehicle_480" depart="1044.00" route="r_sw"/>
  <vehicle id="vehicle_481" depart="1050.00" route="r_ew"/>
  <vehicle id="vehicle_482" depart="1050.00" route="r_we"/>
  <vehicle id="vehicle_483" depart="1053.33" route="r_we"/>
  <vehicle id="vehicle_484" depart="1056.00" route="r_ew"/>
  <vehicle id="vehicle_485" depart="1056.00" route="r_sw"/>
  <vehicle id="vehicle_486" depart="1060.00" route="r_we"/>
  <vehicle id="vehicle_487" depart="1066.67" route="r_we"/>
  <vehicle id="vehicle_488" depart="1070.00" route="r_we"/>
  <vehicle id="vehicle_489" depart="1073.33" route="r_we"/>
  <vehicle id="vehicle_490" depart="1080.00" route="r_ew"/>
  <vehicle id="vehicle_491" depart="1080.00" route="r_ew"/>
  <vehicle id="vehicle_492" depart="1080.00" route="r_se"/>
  <vehicle id="vehicle_493" depart="1080.00" route="r_sw"/>
  <vehicle id="vehicle_494" depart="1080.00" route="r_we"/>
  <vehicle id="vehicle_495" depart="1090.00" route="r_se"/>
  <vehicle id="vehicle_496" depart="1092.00" route="r_ew"/>
  <vehicle id="vehicle_497" depart="1100.00" route="r_se"/>
  <vehicle id="vehicle_498" depart="1100.00" route="r_we"/>
  <vehicle id="vehicle_499" depart="1100.00" route="r_we"/>
  <vehicle id="vehicle_500" depart="1104.00" route="r_ew"/>
  <vehicle id="vehicle_501" depart="1110.00" route="r_ew"/>
  <vehicle id="vehicle_502" depart="1110.00" route="r_sw"/>
  <vehicle id="vehicle_503" depart="1116.00" route="r_ew"/>