<?xml version="1.0" encoding="UTF-8"?>

<!-- scaled to 50% by traffic_amplifier.py -->

<routes xmlns:xsi="http://www.w3.org/2001/XMLSchema-instance" xsi:noNamespaceSchemaLocation="http://sumo.dlr.de/xsd/routes_file.xsd">
    <!-- Routes -->
    <route id="r_ew" edges="E2 E3 -E5"/>
    <route id="r_se" edges="E4 E0 E1 -E2"/>
    <route id="r_sw" edges="E4 E0 E1 E3"/>
    <route id="r_we" edges="E5 -E3 -E2"/>
  <vehicle id="vehicle_1" depart="0.00" route="r_ew"/>
  <vehicle id="vehicle_2" depart="0.00" route="r_se"/>
  <vehicle id="vehicle_3" depart="0.00" route="r_sw"/>
  <vehicle id="vehicle_4" depart="0.00" route="r_we"/>
  <vehicle id="vehicle_5" depart="5.00" route="r_ew"/>
  <vehicle id="vehicle_6" depart="6.00" route="r_we"/>
  <vehicle id="vehicle_7" depart="12.00" route="r_we"/>
  <vehicle id="vehicle_8" depart="15.00" route="r_ew"/>
  <vehicle id="vehicle_9" depart="18.00" route="r_we"/>
  <vehicle id="vehicle_10" depart="24.00" route="r_we"/>
  <vehicle id="vehicle_11" depart="25.00" route="r_ew"/>
  <vehicle id="vehicle_12" depart="30.00" route="r_ew"/>
  <vehicle id="vehicle_13" depart="30.00" route="r_se"/>
  <vehicle id="vehicle_14" depart="30.00" route="r_sw"/>
  <vehicle id="vehicle_15" depart="30.00" route="r_we"/>
  <vehicle id="vehicle_16" depart="37.50" route="r_we"/>
  <vehicle id="vehicle_17" depart="40.00" route="r_ew"/>
  <vehicle id="vehicle_18" depart="45.00" route="r_we"/>
  <vehicle id="vehicle_19" depart="50.00" route="r_ew"/>
  <vehicle id="vehicle_20" depart="52.50" route="r_we"/>
  <vehicle id="vehicle_21" depart="60.00" route="r_ew"/>
  <vehicle id="vehicle_22" depart="60.00" route="r_se"/>
  <vehicle id="vehicle_23" depart="60.00" route="r_sw"/>
  <vehicle id="vehicle_24" depart="60.00" route="r_we"/>
  <vehicle id="vehicle_25" depart="65.45" route="r_we"/>
  <vehicle id="vehicle_26" depart="70.00" route="r_ew"/>
  <vehicle id="vehicle_27" depart="72.00" route="r_we"/>
  <vehicle id="vehicle_28" depart="80.00" route="r_ew"/>
  <vehicle id="vehicle_29" depart="81.82" route="r_we"/>
  <vehicle id="vehicle_30" depart="87.27" route="r_we"/>
  <vehicle id="vehicle_31" depart="90.00" route="r_ew"/>
  <vehicle id="vehicle_32" depart="96.00" route="r_we"/>
  <vehicle id="vehicle_33" depart="100.00" route="r_ew"/>
  <vehicle id="vehicle_34" depart="100.00" route="r_se"/>
  <vehicle id="vehicle_35" depart="103.64" route="r_we"/>
  <vehicle id="vehicle_36" depart="109.09" route="r_we"/>
  <vehicle id="vehicle_37" depart="110.00" route="r_ew"/>
  <vehicle id="vehicle_38" depart="120.00" route="r_ew"/>
  <vehicle id="vehicle_39" depart="120.00" route="r_sw"/>
  <vehicle id="vehicle_40" depart="120.00" route="r_we"/>
  <vehicle id="vehicle_41" depart="125.45" route="r_we"/>
  <vehicle id="vehicle_42" depart="130.00" route="r_ew"/>
  <vehicle id="vehicle_43" depart="130.91" route="r_we"/>
  <vehicle id="vehicle_44" depart="137.14" route="r_we"/>
  <vehicle id="vehicle_45" depart="140.00" route="r_ew"/>
  <vehicle id="vehicle_46" depart="145.71" route="r_we"/>
  <vehicle id="vehicle_47" depart="150.00" route="r_ew"/>
  <vehicle id="vehicle_48" depart="152.73" route="r_we"/>
  <vehicle id="vehicle_49" depart="158.18" route="r_we"/>
  <vehicle id="vehicle_50" depart="160.00" route="r_sw"/>
  <vehicle id="vehicle_51" depart="163.64" route="r_we"/>
  <vehicle id="vehicle_52" depart="165.00" route="r_ew"/>
  <vehicle id="vehicle_53" depart="171.43" route="r_we"/>
  <vehicle id="vehicle_54" depart="180.00" route="r_ew"/>
  <vehicle id="vehicle_55" depart="180.00" route="r_sw"/>
  <vehicle id="vehicle_56" depart="180.00" route="r_we"/>
  <vehicle id="vehicle_57" depart="186.00" route="r_ew"/>
  <vehicle id="vehicle_58" depart="186.00" route="r_we"/>
  <vehicle id="vehicle_59" depart="192.00" route="r_ew"/>
  <vehicle id="vehicle_60" depart="192.00" route="r_we"/>
  <vehicle id="vehicle_61" depart="197.14" route="r_sw"/>
  <vehicle id="vehicle_62" depart="198.00" route="r_we"/>
  <vehicle id="vehicle_63" depart="204.00" route="r_ew"/>
  <vehicle id="vehicle_64" depart="204.00" route="r_we"/>
  <vehicle id="vehicle_65" depart="210.00" route="r_ew"/>
  <vehicle id="vehicle_66" depart="210.00" route="r_we"/>
  <vehicle id="vehicle_67" depart="214.29" route="r_sw"/>
  <vehicle id="vehicle_68" depart="216.00" route="r_ew"/>
  <vehicle id="vehicle_69" depart="217.50" route="r_we"/>
  <vehicle id="vehicle_70" depart="225.00" route="r_we"/>
  <vehicle id="vehicle_71" depart="228.00" route="r_ew"/>
  <vehicle id="vehicle_72" depart="231.43" route="r_sw"/>
  <vehicle id="vehicle_73" depart="232.50" route="r_we"/>
  <vehicle id="vehicle_74" depart="234.00" route="r_ew"/>
  <vehicle id="vehicle_75" depart="240.00" route="r_ew"/>
  <vehicle id="vehicle_76" depart="240.00" route="r_se"/>
  <vehicle id="vehicle_77" depart="240.00" route="r_sw"/>
  <vehicle id="vehicle_78" depart="240.00" route="r_we"/>
  <vehicle id="vehicle_79" depart="246.00" route="r_we"/>
  <vehicle id="vehicle_80" depart="248.57" route="r_ew"/>
  <vehicle id="vehicle_81" depart="252.00" route="r_we"/>
  <vehicle id="vehicle_82" depart="257.14" route="r_ew"/>
  <vehicle id="vehicle_83" depart="260.00" route="r_we"/>
  <vehicle id="vehicle_84" depart="265.71" route="r_ew"/>
  <vehicle id="vehicle_85" depart="270.00" route="r_sw"/>
  <vehicle id="vehicle_86" depart="270.00" route="r_we"/>
  <vehicle id="vehicle_87" depart="274.29" route="r_ew"/>
  <vehicle id="vehicle_88" depart="276.00" route="r_we"/>
  <vehicle id="vehicle_89" depart="282.00" route="r_we"/>
  <vehicle id="vehicle_90" depart="282.86" route="r_ew"/>
  <vehicle id="vehicle_91" depart="285.00" route="r_sw"/>
  <vehicle id="vehicle_92" depart="290.00" route="r_we"/>
  <vehicle id="vehicle_93" depart="291.43" route="r_ew"/>
  <vehicle id="vehicle_94" depart="300.00" route="r_ew"/>
  <vehicle id="vehicle_95" depart="300.00" route="r_se"/>
  <vehicle id="vehicle_96" depart="300.00" route="r_we"/>
  <vehicle id="vehicle_97" depart="306.67" route="r_ew"/>
  <vehicle id="vehicle_98" depart="307.50" route="r_we"/>
  <vehicle id="vehicle_99" depart="313.33" route="r_ew"/>
  <vehicle id="vehicle_100" depart="315.00" route="r_we"/>
  <vehicle id="vehicle_101" depart="320.00" route="r_ew"/>
  <vehicle id="vehicle_102" depart="322.50" route="r_we"/>
  <vehicle id="vehicle_103" depart="330.00" route="r_ew"/>
  <vehicle id="vehicle_104" depart="330.00" route="r_we"/>
  <vehicle id="vehicle_105" depart="337.50" route="r_we"/>
  <vehicle id="vehicle_106" depart="340.00" route="r_ew"/>
  <vehicle id="vehicle_107" depart="345.00" route="r_we"/>
  <vehicle id="vehicle_108" depart="346.67" route="r_ew"/>
  <vehicle id="vehicle_109" depart="352.50" route="r_we"/>
  <vehicle id="vehicle_110" depart="353.33" route="r_ew"/>
  <vehicle id="vehicle_111" depart="360.00" route="r_ew"/>
  <vehicle id="vehicle_112" depart="360.00" route="r_sw"/>
  <vehicle id="vehicle_113" depart="360.00" route="r_we"/>
  <vehicle id="vehicle_114" depart="370.00" route="r_ew"/>
  <vehicle id="vehicle_115" depart="372.00" route="r_we"/>
  <vehicle id="vehicle_116" depart="378.00" route="r_ew"/>
  <vehicle id="vehicle_117" depart="378.00" route="r_we"/>
  <vehicle id="vehicle_118" depart="384.00" route="r_ew"/>
  <vehicle id="vehicle_119" depart="384.00" route="r_sw"/>
  <vehicle id="vehicle_120" depart="384.00" route="r_we"/>
  <vehicle id="vehicle_121" depart="390.00" route="r_ew"/>
  <vehicle id="vehicle_122" depart="390.00" route="r_se"/>
  <vehicle id="vehicle_123" depart="396.00" route="r_we"/>
  <vehicle id="vehicle_124" depart="400.00" route="r_ew"/>
  <vehicle id="vehicle_125" depart="402.00" route="r_we"/>
  <vehicle id="vehicle_126" depart="408.00" route="r_ew"/>
  <vehicle id="vehicle_127" depart="408.00" route="r_sw"/>
  <vehicle id="vehicle_128" depart="408.00" route="r_we"/>
  <vehicle id="vehicle_129" depart="414.00" route="r_ew"/>
  <vehicle id="vehicle_130" depart="420.00" route="r_ew"/>
  <vehicle id="vehicle_131" depart="420.00" route="r_we"/>
  <vehicle id="vehicle_132" depart="425.45" route="r_we"/>
  <vehicle id="vehicle_133" depart="430.00" route="r_ew"/>
  <vehicle id="vehicle_134" depart="430.91" route="r_we"/>
  <vehicle id="vehicle_135" depart="436.36" route="r_ew"/>
  <vehicle id="vehicle_136" depart="440.00" route="r_sw"/>
  <vehicle id="vehicle_137" depart="440.00" route="r_we"/>
  <vehicle id="vehicle_138" depart="441.82" route="r_ew"/>
  <vehicle id="vehicle_139" depart="447.27" route="r_we"/>
  <vehicle id="vehicle_140" depart="450.00" route="r_ew"/>
  <vehicle id="vehicle_141" depart="452.73" route="r_we"/>
  <vehicle id="vehicle_142" depart="458.18" route="r_ew"/>
  <vehicle id="vehicle_143" depart="460.00" route="r_we"/>
  <vehicle id="vehicle_144" depart="463.64" route="r_ew"/>
  <vehicle id="vehicle_145" depart="469.09" route="r_we"/>
  <vehicle id="vehicle_146" depart="470.00" route="r_ew"/>
  <vehicle id="vehicle_147" depart="474.55" route="r_we"/>
  <vehicle id="vehicle_148" depart="480.00" route="r_ew"/>
  <vehicle id="vehicle_149" depart="480.00" route="r_se"/>
  <vehicle id="vehicle_150" depart="480.00" route="r_sw"/>
  <vehicle id="vehicle_151" depart="480.00" route="r_we"/>
  <vehicle id="vehicle_152" depart="486.00" route="r_ew"/>
  <vehicle id="vehicle_153" depart="490.00" route="r_we"/>
  <vehicle id="vehicle_154" depart="492.00" route="r_ew"/>
  <vehicle id="vehicle_155" depart="495.00" route="r_we"/>
  <vehicle id="vehicle_156" depart="504.00" route="r_ew"/>
  <vehicle id="vehicle_157" depart="504.00" route="r_we"/>
  <vehicle id="vehicle_158" depart="510.00" route="r_ew"/>
  <vehicle id="vehicle_159" depart="510.00" route="r_we"/>
  <vehicle id="vehicle_160" depart="516.00" route="r_ew"/>
  <vehicle id="vehicle_161" depart="516.00" route="r_we"/>
  <vehicle id="vehicle_162" depart="525.00" route="r_we"/>
  <vehicle id="vehicle_163" depart="528.00" route="r_ew"/>
  <vehicle id="vehicle_164" depart="530.00" route="r_we"/>
  <vehicle id="vehicle_165" depart="534.00" route="r_ew"/>
  <vehicle id="vehicle_166" depart="540.00" route="r_ew"/>
  <vehicle id="vehicle_167" depart="540.00" route="r_se"/>
  <vehicle id="vehicle_168" depart="540.00" route="r_sw"/>
  <vehicle id="vehicle_169" depart="540.00" route="r_we"/>
  <vehicle id="vehicle_170" depart="544.62" route="r_we"/>
  <vehicle id="vehicle_171" depart="546.67" route="r_ew"/>
  <vehicle id="vehicle_172" depart="549.23" route="r_we"/>
  <vehicle id="vehicle_173" depart="550.00" route="r_sw"/>
  <vehicle id="vehicle_174" depart="553.33" route="r_ew"/>
  <vehicle id="vehicle_175" depart="553.85" route="r_we"/>
  <vehicle id="vehicle_176" depart="560.00" route="r_ew"/>
  <vehicle id="vehicle_177" depart="560.00" route="r_we"/>
  <vehicle id="vehicle_178" depart="566.67" route="r_ew"/>
  <vehicle id="vehicle_179" depart="566.67" route="r_we"/>
  <vehicle id="vehicle_180" depart="570.00" route="r_sw"/>
  <vehicle id="vehicle_181" depart="572.31" route="r_we"/>
  <vehicle id="vehicle_182" depart="573.33" route="r_ew"/>
  <vehicle id="vehicle_183" depart="576.92" route="r_we"/>
  <vehicle id="vehicle_184" depart="580.00" route="r_ew"/>
  <vehicle id="vehicle_185" depart="581.54" route="r_we"/>
  <vehicle id="vehicle_186" depart="586.67" route="r_ew"/>
  <vehicle id="vehicle_187" depart="586.67" route="r_we"/>
  <vehicle id="vehicle_188" depart="590.00" route="r_sw"/>
  <vehicle id="vehicle_189" depart="593.33" route="r_ew"/>
  <vehicle id="vehicle_190" depart="593.33" route="r_we"/>
  <vehicle id="vehicle_191" depart="600.00" route="r_ew"/>
  <vehicle id="vehicle_192" depart="600.00" route="r_se"/>
  <vehicle id="vehicle_193" depart="600.00" route="r_we"/>
  <vehicle id="vehicle_194" depart="606.00" route="r_ew"/>
  <vehicle id="vehicle_195" depart="608.57" route="r_we"/>
  <vehicle id="vehicle_196" depart="610.00" route="r_sw"/>
  <vehicle id="vehicle_197" depart="612.00" route="r_ew"/>
  <vehicle id="vehicle_198" depart="617.14" route="r_we"/>
  <vehicle id="vehicle_199" depart="620.00" route="r_ew"/>
  <vehicle id="vehicle_200" depart="625.71" route="r_we"/>
  <vehicle id="vehicle_201" depart="630.00" route="r_ew"/>
  <vehicle id="vehicle_202" depart="630.00" route="r_se"/>
  <vehicle id="vehicle_203" depart="630.00" route="r_sw"/>
  <vehicle id="vehicle_204" depart="636.00" route="r_ew"/>
  <vehicle id="vehicle_205" depart="636.00" route="r_we"/>
  <vehicle id="vehicle_206" depart="642.00" route="r_ew"/>
  <vehicle id="vehicle_207" depart="648.00" route="r_we"/>
  <vehicle id="vehicle_208" depart="650.00" route="r_ew"/>
  <vehicle id="vehicle_209" depart="650.00" route="r_sw"/>
  <vehicle id="vehicle_210" depart="660.00" route="r_ew"/>
  <vehicle id="vehicle_211" depart="660.00" route="r_se"/>
  <vehicle id="vehicle_212" depart="660.00" route="r_we"/>
  <vehicle id="vehicle_213" depart="667.50" route="r_we"/>
  <vehicle id="vehicle_214" depart="668.57" route="r_sw"/>
  <vehicle id="vehicle_215" depart="670.00" route="r_ew"/>
  <vehicle id="vehicle_216" depart="680.00" route="r_we"/>
  <vehicle id="vehicle_217" depart="685.71" route="r_sw"/>
  <vehicle id="vehicle_218" depart="690.00" route="r_ew"/>
  <vehicle id="vehicle_219" depart="690.00" route="r_se"/>
  <vehicle id="vehicle_220" depart="690.00" route="r_we"/>
  <vehicle id="vehicle_221" depart="700.00" route="r_we"/>
  <vehicle id="vehicle_222" depart="702.86" route="r_sw"/>
  <vehicle id="vehicle_223" depart="710.00" route="r_ew"/>
  <vehicle id="vehicle_224" depart="712.50" route="r_we"/>
  <vehicle id="vehicle_225" depart="720.00" route="r_ew"/>
  <vehicle id="vehicle_226" depart="720.00" route="r_se"/>
  <vehicle id="vehicle_227" depart="720.00" route="r_sw"/>
  <vehicle id="vehicle_228" depart="720.00" route="r_we"/>
  <vehicle id="vehicle_229" depart="728.57" route="r_sw"/>
  <vehicle id="vehicle_230" depart="732.00" route="r_ew"/>
  <vehicle id="vehicle_231" depart="735.00" route="r_we"/>
  <vehicle id="vehicle_232" depart="742.50" route="r_we"/>
  <vehicle id="vehicle_233" depart="744.00" route="r_ew"/>
  <vehicle id="vehicle_234" depart="745.71" route="r_sw"/>
  <vehicle id="vehicle_235" depart="750.00" route="r_we"/>
  <vehicle id="vehicle_236" depart="756.00" route="r_ew"/>
  <vehicle id="vehicle_237" depart="760.00" route="r_se"/>
  <vehicle id="vehicle_238" depart="762.86" route="r_sw"/>
  <vehicle id="vehicle_239" depart="765.00" route="r_we"/>
  <vehicle id="vehicle_240" depart="768.00" route="r_ew"/>
  <vehicle id="vehicle_241" depart="772.50" route="r_we"/>
  <vehicle id="vehicle_242" depart="780.00" route="r_ew"/>
  <vehicle id="vehicle_243" depart="780.00" route="r_sw"/>
  <vehicle id="vehicle_244" depart="780.00" route="r_we"/>
  <vehicle id="vehicle_245" depart="787.50" route="r_ew"/>
  <vehicle id="vehicle_246" depart="788.57" route="r_we"/>
  <vehicle id="vehicle_247" depart="795.00" route="r_ew"/>
  <vehicle id="vehicle_248" depart="797.14" route="r_we"/>
  <vehicle id="vehicle_249" depart="802.50" route="r_ew"/>
  <vehicle id="vehicle_250" depart="805.71" route="r_we"/>
  <vehicle id="vehicle_251" depart="810.00" route="r_ew"/>
  <vehicle id="vehicle_252" depart="810.00" route="r_se"/>
  <vehicle id="vehicle_253" depart="813.33" route="r_we"/>
  <vehicle id="vehicle_254" depart="817.50" route="r_ew"/>
  <vehicle id="vehicle_255" depart="820.00" route="r_we"/>
  <vehicle id="vehicle_256" depart="825.00" route="r_ew"/>
  <vehicle id="vehicle_257" depart="826.67" route="r_we"/>
  <vehicle id="vehicle_258" depart="832.50" route="r_ew"/>
  <vehicle id="vehicle_259" depart="833.33" route="r_we"/>
  <vehicle id="vehicle_260" depart="840.00" route="r_ew"/>
  <vehicle id="vehicle_261" depart="840.00" route="r_sw"/>
  <vehicle id="vehicle_262" depart="840.00" route="r_we"/>
  <vehicle id="vehicle_263" depart="848.57" route="r_ew"/>
  <vehicle id="vehicle_264" depart="848.57" route="r_we"/>
  <vehicle id="vehicle_265" depart="855.00" route="r_se"/>
  <vehicle id="vehicle_266" depart="857.14" route="r_ew"/>
  <vehicle id="vehicle_267" depart="857.14" route="r_we"/>
  <vehicle id="vehicle_268" depart="860.00" route="r_sw"/>
  <vehicle id="vehicle_269" depart="865.71" route="r_ew"/>
  <vehicle id="vehicle_270" depart="865.71" route="r_we"/>
  <vehicle id="vehicle_271" depart="873.33" route="r_we"/>
  <vehicle id="vehicle_272" depart="874.29" route="r_ew"/>
  <vehicle id="vehicle_273" depart="880.00" route="r_sw"/>
  <vehicle id="vehicle_274" depart="880.00" route="r_we"/>
  <vehicle id="vehicle_275" depart="882.86" route="r_ew"/>
  <vehicle id="vehicle_276" depart="885.00" route="r_se"/>
  <vehicle id="vehicle_277" depart="886.67" route="r_we"/>
  <vehicle id="vehicle_278" depart="891.43" route="r_ew"/>
  <vehicle id="vehicle_279" depart="893.33" route="r_we"/>
  <vehicle id="vehicle_280" depart="900.00" route="r_ew"/>
  <vehicle id="vehicle_281" depart="900.00" route="r_sw"/>
  <vehicle id="vehicle_282" depart="900.00" route="r_we"/>
  <vehicle id="vehicle_283" depart="907.50" route="r_ew"/>
  <vehicle id="vehicle_284" depart="908.57" route="r_we"/>
  <vehicle id="vehicle_285" depart="915.00" route="r_ew"/>
  <vehicle id="vehicle_286" depart="917.14" route="r_we"/>
  <vehicle id="vehicle_287" depart="922.50" route="r_ew"/>
  <vehicle id="vehicle_288" depart="925.71" route="r_we"/>
  <vehicle id="vehicle_289" depart="930.00" route="r_ew"/>
  <vehicle id="vehicle_290" depart="933.33" route="r_we"/>
  <vehicle id="vehicle_291" depart="937.50" route="r_ew"/>
  <vehicle id="vehicle_292" depart="940.00" route="r_we"/>
  <vehicle id="vehicle_293" depart="945.00" route="r_ew"/>
  <vehicle id="vehicle_294" depart="946.67" route="r_we"/>
  <vehicle id="vehicle_295" depart="952.50" route="r_ew"/>
  <vehicle id="vehicle_296" depart="953.33" route="r_we"/>
  <vehicle id="vehicle_297" depart="960.00" route="r_ew"/>
  <vehicle id="vehicle_298" depart="960.00" route="r_we"/>
  <vehicle id="vehicle_299" depart="965.45" route="r_ew"/>
  <vehicle id="vehicle_300" depart="970.91" route="r_we"/>
  <vehicle id="vehicle_301" depart="975.00" route="r_ew"/>
  <vehicle id="vehicle_302" depart="976.36" route="r_we"/>
  <vehicle id="vehicle_303" depart="981.82" route="r_ew"/>
  <vehicle id="vehicle_304" depart="984.00" route="r_we"/>
  <vehicle id="vehicle_305" depart="990.00" route="r_ew"/>
  <vehicle id="vehicle_306" depart="990.00" route="r_se"/>
  <vehicle id="vehicle_307" depart="990.00" route="r_sw"/>
  <vehicle id="vehicle_308" depart="992.73" route="r_we"/>
  <vehicle id="vehicle_309" depart="998.18" route="r_ew"/>
  <vehicle id="vehicle_310" depart="998.18" route="r_we"/>
  <vehicle id="vehicle_311" depart="1005.00" route="r_ew"/>
  <vehicle id="vehicle_312" depart="1008.00" route="r_we"/>
  <vehicle id="vehicle_313" depart="1014.55" route="r_ew"/>
  <vehicle id="vehicle_314" depart="1014.55" route="r_we"/>
  <vehicle id="vehicle_315" depart="1020.00" route="r_ew"/>
  <vehicle id="vehicle_316" depart="1020.00" route="r_we"/>
  <vehicle id="vehicle_317" depart="1030.00" route="r_we"/>
  <vehicle id="vehicle_318" depart="1032.00" route="r_sw"/>
  <vehicle id="vehicle_319" depart="1040.00" route="r_we"/>
  <vehicle id="vehicle_320" depart="1044.00" route="r_ew"/>
  <vehicle id="vehicle_321" depart="1046.67" route="r_we"/>
  <vehicle id="vehicle_322" depart="1053.33" route="r_we"/>
  <vehicle id="vehicle_323" depart="1056.00" route="r_ew"/>
  <vehicle id="vehicle_324" depart="1056.00" route="r_sw"/>
  <vehicle id="vehicle_325" depart="1060.00" route="r_we"/>
  <vehicle id="vehicle_326" depart="1070.00" route="r_we"/>
  <vehicle id="vehicle_327" depart="1080.00" route="r_ew"/>
  <vehicle id="vehicle_328" depart="1080.00" route="r_se"/>
  <vehicle id="vehicle_329" depart="1080.00" route="r_sw"/>
  <vehicle id="vehicle_330" depart="1080.00" route="r_we"/>
  <vehicle id="vehicle_331" depart="1092.00" route="r_ew"/>
  <vehicle id="vehicle_332" depart="1100.00" route="r_se"/>
  <vehicle id="vehicle_333" depart="1100.00" route="r_we"/>
  <vehicle id="vehicle_334" depart="1104.00" route="r_ew"/>
  <vehicle id="vehicle_335" depart="1116.00" route="r_ew"/>
  <vehicle id="vehicle_336" depart="1120.00" route="r_se"/>
  <vehicle id="vehicle_337" depart="1120.00" route="r_we"/>
  <vehicle id="vehicle_338" depart="1128.00" route="r_ew"/>
  <vehicle id="vehicle_339" depart="1140.00" route="r_ew"/>
  <vehicle id="vehicle_340" depart="1140.00" route="r_se"/>
  <vehicle id="vehicle_341" depart="1140.00" route="r_sw"/>
  <vehicle id="vehicle_342" depart="1140.00" route="r_we"/>
  <vehicle id="vehicle_343" depart="1148.57" route="r_sw"/>
  <vehicle id="vehicle_344" depart="1160.00" route="r_ew"/>
  <vehicle id="vehicle_345" depart="1165.71" route="r_sw"/>
  <vehicle id="vehicle_346" depart="1170.00" route="r_we"/>
  <vehicle id="vehicle_347" depart="1180.00" route="r_ew"/>
  <vehicle id="vehicle_348" depart="1182.86" route="r_sw"/>
  <vehicle id="vehicle_349" depart="1200.00" route="r_ew"/>
  <vehicle id="vehicle_350" depart="1200.00" route="r_sw"/>
  <vehicle id="vehicle_351" depart="1200.00" route="r_we"/>
  <vehicle id="vehicle_352" depart="1207.50" route="r_ew"/>
  <vehicle id="vehicle_353" depart="1212.00" route="r_se"/>
  <vehicle id="vehicle_354" depart="1212.00" route="r_we"/>
  <vehicle id="vehicle_355" depart="1215.00" route="r_ew"/>
  <vehicle id="vehicle_356" depart="1220.00" route="r_sw"/>
  <vehicle id="vehicle_357" depart="1220.00" route="r_we"/>
  <vehicle id="vehicle_358" depart="1226.67" route="r_we"/>
  <vehicle id="vehicle_359" depart="1230.00" route="r_ew"/>
  <vehicle id="vehicle_360" depart="1236.00" route="r_se"/>
  <vehicle id="vehicle_361" depart="1236.00" route="r_we"/>
  <vehicle id="vehicle_362" depart="1237.50" route="r_ew"/>
  <vehicle id="vehicle_363" depart="1245.00" route="r_ew"/>
  <vehicle id="vehicle_364" depart="1246.67" route="r_we"/>
  <vehicle id="vehicle_365" depart="1253.33" route="r_we"/>
  <vehicle id="vehicle_366" depart="1260.00" route="r_ew"/>
  <vehicle id="vehicle_367" depart="1260.00" route="r_se"/>
  <vehicle id="vehicle_368" depart="1260.00" route="r_sw"/>
  <vehicle id="vehicle_369" depart="1260.00" route="r_we"/>
  <vehicle id="vehicle_370" depart="1270.00" route="r_ew"/>
  <vehicle id="vehicle_371" depart="1272.00" route="r_we"/>
  <vehicle id="vehicle_372" depart="1280.00" route="r_ew"/>
  <vehicle id="vehicle_373" depart="1280.00" route="r_we"/>
  <vehicle id="vehicle_374" depart="1286.67" route="r_we"/>
  <vehicle id="vehicle_375" depart="1290.00" route="r_ew"/>
  <vehicle id="vehicle_376" depart="1296.00" route="r_we"/>
  <vehicle id="vehicle_377" depart="1300.00" route="r_ew"/>
  <vehicle id="vehicle_378" depart="1306.67" route="r_we"/>
  <vehicle id="vehicle_379" depart="1310.00" route="r_ew"/>
  <vehicle id="vehicle_380" depart="1313.33" route="r_we"/>
  <vehicle id="vehicle_381" depart="1320.00" route="r_ew"/>
  <vehicle id="vehicle_382" depart="1320.00" route="r_sw"/>
  <vehicle id="vehicle_383" depart="1320.00" route="r_we"/>
  <vehicle id="vehicle_384" depart="1332.00" route="r_ew"/>
  <vehicle id="vehicle_385" depart="1332.00" route="r_we"/>
  <vehicle id="vehicle_386" depart="1340.00" route="r_we"/>
  <vehicle id="vehicle_387" depart="1344.00" route="r_ew"/>
  <vehicle id="vehicle_388" depart="1346.67" route="r_we"/>
  <vehicle id="vehicle_389" depart="1356.00" route="r_ew"/>
  <vehicle id="vehicle_390" depart="1356.00" route="r_we"/>
  <vehicle id="vehicle_391" depart="1360.00" route="r_sw"/>
  <vehicle id="vehicle_392" depart="1366.67" route="r_we"/>
  <vehicle id="vehicle_393" depart="1368.00" route="r_ew"/>
  <vehicle id="vehicle_394" depart="1373.33" route="r_we"/>
  <vehicle id="vehicle_395" depart="1380.00" route="r_ew"/>
  <vehicle id="vehicle_396" depart="1380.00" route="r_se"/>
  <vehicle id="vehicle_397" depart="1380.00" route="r_we"/>
  <vehicle id="vehicle_398" depart="1386.00" route="r_ew"/>
  <vehicle id="vehicle_399" depart="1386.67" route="r_we"/>
  <vehicle id="vehicle_400" depart="1392.00" route="r_ew"/>
  <vehicle id="vehicle_401" depart="1393.33" route="r_we"/>
  <vehicle id="vehicle_402" depart="1400.00" route="r_ew"/>
  <vehicle id="vehicle_403" depart="1400.00" route="r_we"/>
  <vehicle id="vehicle_404" depart="1406.67" route="r_we"/>
  <vehicle id="vehicle_405" depart="1410.00" route="r_ew"/>
  <vehicle id="vehicle_406" depart="1410.00" route="r_sw"/>
  <vehicle id="vehicle_407" depart="1413.33" route="r_we"/>
  <vehicle id="vehicle_408" depart="1416.00" route="r_ew"/>
  <vehicle id="vehicle_409" depart="1420.00" route="r_we"/>
  <vehicle id="vehicle_410" depart="1422.00" route="r_ew"/>
  <vehicle id="vehicle_411" depart="1426.67" route="r_we"/>
  <vehicle id="vehicle_412" depart="1430.00" route="r_ew"/>
  <vehicle id="vehicle_413" depart="1433.33" route="r_we"/>
  <vehicle id="vehicle_414" depart="1440.00" route="r_ew"/>
  <vehicle id="vehicle_415" depart="1440.00" route="r_sw"/>
  <vehicle id="vehicle_416" depart="1440.00" route="r_we"/>
  <vehicle id="vehicle_417" depart="1446.00" route="r_we"/>
  <vehicle id="vehicle_418" depart="1455.00" route="r_ew"/>
  <vehicle id="vehicle_419" depart="1455.00" route="r_we"/>
  <vehicle id="vehicle_420" depart="1460.00" route="r_se"/>
  <vehicle id="vehicle_421" depart="1464.00" route="r_sw"/>
  <vehicle id="vehicle_422" depart="1464.00" route="r_we"/>
  <vehicle id="vehicle_423" depart="1470.00" route="r_we"/>
  <vehicle id="vehicle_424" depart="1482.00" route="r_we"/>
  <vehicle id="vehicle_425" depart="1485.00" route="r_ew"/>
  <vehicle id="vehicle_426" depart="1488.00" route="r_sw"/>
  <vehicle id="vehicle_427" depart="1488.00" route="r_we"/>
  <vehicle id="vehicle_428" depart="1500.00" route="r_ew"/>
  <vehicle id="vehicle_429" depart="1500.00" route="r_se"/>
  <vehicle id="vehicle_430" depart="1500.00" route="r_sw"/>
  <vehicle id="vehicle_431" depart="1500.00" route="r_we"/>
  <vehicle id="vehicle_432" depart="1505.45" route="r_we"/>
  <vehicle id="vehicle_433" depart="1510.91" route="r_we"/>
  <vehicle id="vehicle_434" depart="1515.00" route="r_ew"/>
  <vehicle id="vehicle_435" depart="1520.00" route="r_we"/>
  <vehicle id="vehicle_436" depart="1527.27" route="r_we"/>
  <vehicle id="vehicle_437" depart="1530.00" route="r_ew"/>
  <vehicle id="vehicle_438" depart="1530.00" route="r_sw"/>
  <vehicle id="vehicle_439" depart="1532.73" route="r_we"/>
  <vehicle id="vehicle_440" depart="1540.00" route="r_se"/>
  <vehicle id="vehicle_441" depart="1540.00" route="r_we"/>
  <vehicle id="vehicle_442" depart="1545.00" route="r_ew"/>
  <vehicle id="vehicle_443" depart="1545.00" route="r_sw"/>
  <vehicle id="vehicle_444" depart="1549.09" route="r_we"/>
  <vehicle id="vehicle_445" depart="1554.55" route="r_we"/>
  <vehicle id="vehicle_446" depart="1560.00" route="r_ew"/>
  <vehicle id="vehicle_447" depart="1560.00" route="r_sw"/>
  <vehicle id="vehicle_448" depart="1560.00" route="r_we"/>
  <vehicle id="vehicle_449" depart="1566.00" route="r_we"/>
  <vehicle id="vehicle_450" depart="1570.00" route="r_ew"/>
  <vehicle id="vehicle_451" depart="1572.00" route="r_we"/>
  <vehicle id="vehicle_452" depart="1575.00" route="r_se"/>
  <vehicle id="vehicle_453" depart="1578.00" route="r_we"/>
  <vehicle id="vehicle_454" depart="1580.00" route="r_ew"/>
  <vehicle id="vehicle_455" depart="1584.00" route="r_we"/>
  <vehicle id="vehicle_456" depart="1590.00" route="r_ew"/>
  <vehicle id="vehicle_457" depart="1590.00" route="r_we"/>
  <vehicle id="vehicle_458" depart="1595.00" route="r_we"/>
  <vehicle id="vehicle_459" depart="1600.00" route="r_ew"/>
  <vehicle id="vehicle_460" depart="1600.00" route="r_we"/>
  <vehicle id="vehicle_461" depart="1605.00" route="r_se"/>
  <vehicle id="vehicle_462" depart="1605.00" route="r_we"/>
  <vehicle id="vehicle_463" depart="1610.00" route="r_ew"/>
  <vehicle id="vehicle_464" depart="1610.00" route="r_we"/>
  <vehicle id="vehicle_465" depart="1615.00" route="r_we"/>
  <vehicle id="vehicle_466" depart="1620.00" route="r_ew"/>
  <vehicle id="vehicle_467" depart="1620.00" route="r_we"/>
  <vehicle id="vehicle_468" depart="1628.57" route="r_sw"/>
  <vehicle id="vehicle_469" depart="1632.00" route="r_we"/>
  <vehicle id="vehicle_470" depart="1640.00" route="r_se"/>
  <vehicle id="vehicle_471" depart="1644.00" route="r_we"/>
  <vehicle id="vehicle_472" depart="1645.71" route="r_sw"/>
  <vehicle id="vehicle_473" depart="1650.00" route="r_ew"/>
  <vehicle id="vehicle_474" depart="1656.00" route="r_we"/>
  <vehicle id="vehicle_475" depart="1662.86" route="r_sw"/>
  <vehicle id="vehicle_476" depart="1668.00" route="r_we"/>
  <vehicle id="vehicle_477" depart="1680.00" route="r_ew"/>
  <vehicle id="vehicle_478" depart="1680.00" route="r_se"/>
  <vehicle id="vehicle_479" depart="1680.00" route="r_sw"/>
  <vehicle id="vehicle_480" depart="1680.00" route="r_we"/>
  <vehicle id="vehicle_481" depart="1684.29" route="r_we"/>
  <vehicle id="vehicle_482" depart="1688.57" route="r_we"/>
  <vehicle id="vehicle_483" depart="1692.86" route="r_we"/>
  <vehicle id="vehicle_484" depart="1695.00" route="r_ew"/>
  <vehicle id="vehicle_485" depart="1695.00" route="r_sw"/>
  <vehicle id="vehicle_486" depart="1697.14" route="r_we"/>
  <vehicle id="vehicle_487" depart="1701.82" route="r_we"/>
  <vehicle id="vehicle_488" depart="1705.71" route="r_ew"/>
  <vehicle id="vehicle_489" depart="1707.27" route="r_we"/>
  <vehicle id="vehicle_490" depart="1712.73" route="r_we"/>
  <vehicle id="vehicle_491" depart="1714.29" route="r_ew"/>
  <vehicle id="vehicle_492" depart="1718.18" route="r_we"/>
  <vehicle id="vehicle_493" depart="1720.00" route="r_se"/>
  <vehicle id="vehicle_494" depart="1722.86" route="r_we"/>
  <vehicle id="vehicle_495" depart="1725.00" route="r_ew"/>
  <vehicle id="vehicle_496" depart="1727.14" route="r_we"/>
  <vehicle id="vehicle_497" depart="1731.43" route="r_we"/>
  <vehicle id="vehicle_498" depart="1735.71" route="r_we"/>
  <vehicle id="vehicle_499" depart="1740.00" route="r_ew"/>
  <vehicle id="vehicle_500" depart="1740.00" route="r_sw"/>