<?xml version="1.0" encoding="UTF-8"?>

<!-- generated on 2026-01-31 15:01:44 by Eclipse SUMO netedit Version 1.24.0
<neteditConfiguration xmlns:xsi="http://www.w3.org/2001/XMLSchema-instance" xsi:noNamespaceSchemaLocation="http://sumo.dlr.de/xsd/neteditConfiguration.xsd">

    <input>
        <sumocfg-file value="C:\Users\colin\Documents\Bachelorarbeit\Darmstadt\Frankfurterstr\fraenkfurt.sumocfg"/>
        <route-files value="C:\Users\colin\Documents\Bachelorarbeit\Darmstadt\Frankfurterstr\fraenkfurt.rou.xml"/>
        <sumo-net-file value="C:\Users\colin\Documents\Bachelorarbeit\Darmstadt\Frankfurterstr\frankfurterstr.net.xml"/>
    </input>

    <output>
        <output-file value="C:\Users\colin\Documents\Bachelorarbeit\Darmstadt\Frankfurterstr\frankfurterstr.net.xml"/>
    </output>

    <processing>
        <offset.disable-normalization value="true"/>
    </processing>

    <junctions>
        <no-turnarounds value="true"/>
    </junctions>

    <netedit>
        <new-network value="false"/>
    </netedit>

</neteditConfiguration>
-->

<net version="1.20" junctionCornerDetail="5" limitTurnSpeed="5.50" avoidOverlap="0" xmlns:xsi="http://www.w3.org/2001/XMLSchema-instance" xsi:noNamespaceSchemaLocation="http://sumo.dlr.de/xsd/net_file.xsd">

    <location netOffset="0.00,0.00" convBoundary="-586.19,-1367.11,498.47,697.56" origBoundary="-10000000000.00,-10000000000.00,10000000000.00,10000000000.00" projParameter="!"/>

    <edge id=":clusterJ0_J42_0" function="internal">
        <lane id=":clusterJ0_J42_0_0" index="0" speed="13.89" length="15.22" shape="-92.32,-4.12 -97.05,-5.47 -100.35,-7.51 -103.15,-9.46 -106.37,-10.56"/>
        <lane id=":clusterJ0_J42_0_1" index="1" speed="13.89" length="15.22" shape="-91.91,-7.29 -96.57,-8.13 -100.03,-9.08 -103.04,-9.95 -106.37,-10.56"/>
    </edge>
    <edge id=":clusterJ0_J42_2" function="internal">
        <lane id=":clusterJ0_J42_2_0" index="0" speed="13.89" length="15.00" shape="-105.31,-20.10 -100.85,-19.87 -97.77,-20.10 -94.70,-20.30 -90.25,-19.99"/>
        <lane id=":clusterJ0_J42_2_1" index="1" speed="13.89" length="15.00" shape="-105.66,-16.92 -101.22,-16.69 -98.16,-16.92 -95.10,-17.12 -90.66,-16.81"/>
        <lane id=":clusterJ0_J42_2_2" index="2" speed="13.89" length="15.00" shape="-106.01,-13.74 -101.59,-13.51 -98.54,-13.74 -95.49,-13.95 -91.08,-13.64"/>
        <lane id=":clusterJ0_J42_2_3" index="3" speed="13.89" length="15.00" shape="-106.01,-13.74 -101.66,-13.02 -98.75,-12.16 -95.83,-11.27 -91.49,-10.47"/>
    </edge>
    <edge id=":clusterJ24_J46_0" function="internal">
        <lane id=":clusterJ24_J46_0_0" index="0" speed="13.89" length="20.86" shape="2.47,-102.32 4.64,-81.69"/>
        <lane id=":clusterJ24_J46_0_1" index="1" speed="13.89" length="20.86" shape="-0.72,-102.08 1.45,-81.40"/>
        <lane id=":clusterJ24_J46_0_2" index="2" speed="13.89" length="20.86" shape="-0.72,-102.08 -0.70,-96.06 -1.31,-91.77 -1.88,-87.39 -1.74,-81.11"/>
    </edge>
    <edge id=":clusterJ26_J29_0" function="internal">
        <lane id=":clusterJ26_J29_0_0" index="0" speed="9.70" length="7.40" shape="30.88,8.95 28.79,9.05 27.42,9.64 26.20,10.67 24.51,12.11"/>
    </edge>
    <edge id=":clusterJ26_J29_1" function="internal">
        <lane id=":clusterJ26_J29_1_0" index="0" speed="13.89" length="7.49" shape="30.88,8.95 23.35,8.21"/>
        <lane id=":clusterJ26_J29_1_1" index="1" speed="13.89" length="7.49" shape="31.08,5.76 23.60,5.02"/>
        <lane id=":clusterJ26_J29_1_2" index="2" speed="13.89" length="7.49" shape="31.27,2.56 23.84,1.83"/>
        <lane id=":clusterJ26_J29_1_3" index="3" speed="13.89" length="7.49" shape="31.47,-0.63 24.08,-1.36"/>
    </edge>
    <edge id=":clusterJ27_J28_0" function="internal">
        <lane id=":clusterJ27_J28_0_0" index="0" speed="8.02" length="7.89" shape="15.83,18.77 13.98,20.39 12.70,22.01 11.97,23.61 11.80,25.20"/>
    </edge>
    <edge id=":clusterJ27_J28_1" function="internal">
        <lane id=":clusterJ27_J28_1_0" index="0" speed="13.89" length="8.58" shape="11.50,16.70 11.80,25.20"/>
        <lane id=":clusterJ27_J28_1_1" index="1" speed="13.89" length="8.58" shape="8.30,16.77 8.60,25.42"/>
    </edge>
    <edge id=":clusterJ2_J35_0" function="internal">
        <lane id=":clusterJ2_J35_0_0" index="0" speed="13.89" length="8.07" shape="-10.66,52.53 -11.28,50.14 -12.21,48.62 -13.09,47.09 -13.60,44.69"/>
        <lane id=":clusterJ2_J35_0_1" index="1" speed="13.89" length="8.07" shape="-10.66,52.53 -10.78,50.15 -10.61,48.51 -10.40,46.87 -10.41,44.48"/>
        <lane id=":clusterJ2_J35_0_2" index="2" speed="13.89" length="8.07" shape="-7.48,52.17 -7.59,49.83 -7.42,48.23 -7.21,46.62 -7.21,44.27"/>
        <lane id=":clusterJ2_J35_0_3" index="3" speed="13.89" length="8.07" shape="-4.30,51.81 -4.41,49.52 -4.23,47.94 -4.02,46.36 -4.02,44.06"/>
    </edge>
    <edge id=":clusterJ30_J32_0" function="internal">
        <lane id=":clusterJ30_J32_0_0" index="0" speed="7.93" length="7.51" shape="-31.97,-12.38 -30.48,-12.45 -28.92,-13.05 -27.29,-14.18 -25.60,-15.83"/>
    </edge>
    <edge id=":clusterJ30_J32_1" function="internal">
        <lane id=":clusterJ30_J32_1_0" index="0" speed="13.89" length="8.11" shape="-31.97,-12.38 -23.93,-11.34"/>
        <lane id=":clusterJ30_J32_1_1" index="1" speed="13.89" length="8.11" shape="-32.38,-9.20 -24.34,-8.17"/>
        <lane id=":clusterJ30_J32_1_2" index="2" speed="13.89" length="8.11" shape="-32.80,-6.03 -24.75,-4.99"/>
        <lane id=":clusterJ30_J32_1_3" index="3" speed="13.89" length="8.11" shape="-33.21,-2.86 -25.16,-1.82"/>
    </edge>
    <edge id=":clusterJ31_J33_0" function="internal">
        <lane id=":clusterJ31_J33_0_0" index="0" speed="13.89" length="7.84" shape="-13.07,-23.85 -13.80,-31.66"/>
        <lane id=":clusterJ31_J33_0_1" index="1" speed="13.89" length="7.84" shape="-9.88,-24.15 -10.61,-31.96"/>
    </edge>
    <edge id=":clusterJ31_J33_2" function="internal">
        <lane id=":clusterJ31_J33_2_0" index="0" speed="8.80" length="7.45" shape="-17.18,-25.21 -15.62,-27.12 -14.53,-28.83 -13.93,-30.35 -13.80,-31.66"/>
    </edge>
    <edge id=":clusterJ34_J37_0" function="internal">
        <lane id=":clusterJ34_J37_0_0" index="0" speed="13.89" length="8.05" shape="-7.26,74.04 -7.57,71.76 -8.09,70.25 -8.64,68.74 -9.08,66.47"/>
        <lane id=":clusterJ34_J37_0_1" index="1" speed="13.89" length="8.05" shape="-4.06,73.86 -4.38,71.53 -4.90,69.98 -5.46,68.43 -5.90,66.11"/>
        <lane id=":clusterJ34_J37_0_2" index="2" speed="13.89" length="8.05" shape="-4.06,73.86 -3.89,71.44 -3.31,69.80 -2.77,68.16 -2.72,65.75"/>
    </edge>
    <edge id=":clusterJ40_J6_0" function="internal">
        <lane id=":clusterJ40_J6_0_0" index="0" speed="13.89" length="40.50" shape="119.87,13.24 79.47,11.92"/>
        <lane id=":clusterJ40_J6_0_1" index="1" speed="13.89" length="40.50" shape="120.02,10.05 79.66,8.73"/>
        <lane id=":clusterJ40_J6_0_2" index="2" speed="13.89" length="40.50" shape="120.02,10.05 79.86,5.53"/>
        <lane id=":clusterJ40_J6_0_3" index="3" speed="13.89" length="40.50" shape="120.02,10.05 112.36,8.85 103.77,6.50 93.31,4.00 80.05,2.34"/>
    </edge>
    <edge id=":clusterJ40_J6_4" function="internal">
        <lane id=":clusterJ40_J6_4_0" index="0" speed="13.89" length="40.60" shape="80.47,-4.05 89.50,-2.67 100.39,-0.23 111.28,2.16 120.32,3.42"/>
        <lane id=":clusterJ40_J6_4_1" index="1" speed="13.89" length="40.60" shape="80.26,-0.86 89.30,0.53 100.21,2.96 111.12,5.36 120.17,6.62"/>
    </edge>
    <edge id=":clusterJ41_J44_0" function="internal">
        <lane id=":clusterJ41_J44_0_0" index="0" speed="13.89" length="8.15" shape="-127.22,-12.87 -129.56,-13.37 -131.08,-14.06 -132.61,-14.77 -134.95,-15.29"/>
    </edge>
    <edge id=":clusterJ41_J44_1" function="internal">
        <lane id=":clusterJ41_J44_1_0" index="0" speed="13.89" length="8.09" shape="-134.16,-21.64 -131.79,-21.62 -130.16,-22.01 -128.53,-22.41 -126.16,-22.41"/>
        <lane id=":clusterJ41_J44_1_1" index="1" speed="13.89" length="8.09" shape="-134.16,-21.64 -131.84,-21.12 -130.34,-20.42 -128.83,-19.72 -126.51,-19.23"/>
        <lane id=":clusterJ41_J44_1_2" index="2" speed="13.89" length="8.09" shape="-134.55,-18.47 -132.23,-17.94 -130.71,-17.24 -129.19,-16.55 -126.86,-16.05"/>
    </edge>
    <edge id=":clusterJ43_J69_0" function="internal">
        <lane id=":clusterJ43_J69_0_0" index="0" speed="13.89" length="9.08" shape="-163.46,-18.84 -172.46,-20.04"/>
    </edge>
    <edge id=":clusterJ43_J69_1" function="internal">
        <lane id=":clusterJ43_J69_1_0" index="0" speed="13.89" length="9.31" shape="-171.98,-26.43 -162.67,-25.19"/>
        <lane id=":clusterJ43_J69_1_1" index="1" speed="13.89" length="9.31" shape="-172.22,-23.24 -163.06,-22.02"/>
    </edge>
    <edge id=":clusterJ45_J72_0" function="internal">
        <lane id=":clusterJ45_J72_0_0" index="0" speed="13.89" length="6.78" shape="0.86,-124.32 1.34,-117.52"/>
        <lane id=":clusterJ45_J72_0_1" index="1" speed="13.89" length="6.78" shape="-2.33,-124.01 -1.85,-117.28"/>
    </edge>
    <edge id=":clusterJ65_J66_J67_0" function="internal">
        <lane id=":clusterJ65_J66_J67_0_0" index="0" speed="13.89" length="6.98" shape="156.28,14.95 149.40,14.42"/>
        <lane id=":clusterJ65_J66_J67_0_1" index="1" speed="13.89" length="6.98" shape="156.56,11.76 149.53,11.22"/>
    </edge>
    <edge id=":clusterJ65_J66_J67_2" function="internal">
        <lane id=":clusterJ65_J66_J67_2_0" index="0" speed="13.89" length="7.29" shape="149.78,4.75 157.12,5.39"/>
        <lane id=":clusterJ65_J66_J67_2_1" index="1" speed="13.89" length="7.29" shape="149.66,7.95 156.84,8.58"/>
    </edge>
    <edge id=":clusterJ73_J74_0" function="internal">
        <lane id=":clusterJ73_J74_0_0" index="0" speed="13.89" length="4.88" shape="-5.15,112.22 -5.37,107.34"/>
        <lane id=":clusterJ73_J74_0_1" index="1" speed="13.89" length="4.88" shape="-1.96,112.03 -2.18,107.16"/>
    </edge>
    <edge id=":clusterJ76_J77_J78_J79_#5more_0" function="internal">
        <lane id=":clusterJ76_J77_J78_J79_#5more_0_0" index="0" speed="8.33" length="13.17" shape="-15.62,13.70 -16.32,10.19 -17.90,7.53 -20.35,5.74 -23.69,4.82"/>
    </edge>
    <edge id=":clusterJ76_J77_J78_J79_#5more_1" function="internal">
        <lane id=":clusterJ76_J77_J78_J79_#5more_1_0" index="0" speed="13.89" length="29.49" shape="-12.42,13.63 -12.30,-15.75"/>
        <lane id=":clusterJ76_J77_J78_J79_#5more_1_1" index="1" speed="13.89" length="29.49" shape="-9.22,13.55 -9.11,-16.05"/>
    </edge>
    <edge id=":clusterJ76_J77_J78_J79_#5more_3" function="internal">
        <lane id=":clusterJ76_J77_J78_J79_#5more_3_0" index="0" speed="11.77" length="35.14" shape="-6.02,13.48 -3.14,7.14 4.37,1.12 13.64,-3.28 21.81,-4.74"/>
    </edge>
    <edge id=":clusterJ76_J77_J78_J79_#5more_4" function="internal">
        <lane id=":clusterJ76_J77_J78_J79_#5more_4_0" index="0" allow="tram" speed="13.89" length="30.03" shape="-1.20,13.36 -4.38,-16.50"/>
    </edge>
    <edge id=":clusterJ76_J77_J78_J79_#5more_5" function="internal">
        <lane id=":clusterJ76_J77_J78_J79_#5more_5_0" index="0" speed="13.89" length="44.66" shape="20.96,8.03 -23.69,4.82"/>
        <lane id=":clusterJ76_J77_J78_J79_#5more_5_1" index="1" speed="13.89" length="44.66" shape="21.17,4.84 -23.28,1.65"/>
    </edge>
    <edge id=":clusterJ76_J77_J78_J79_#5more_7" function="internal">
        <lane id=":clusterJ76_J77_J78_J79_#5more_7_0" index="0" speed="13.89" length="40.76" shape="21.38,1.65 7.18,-0.36 -3.17,-3.93 -9.66,-9.06 -12.30,-15.75"/>
        <lane id=":clusterJ76_J77_J78_J79_#5more_7_1" index="1" speed="13.41" length="36.30" shape="21.60,-1.55 8.60,-3.30 -0.86,-6.30 -6.76,-10.55 -9.11,-16.05"/>
    </edge>
    <edge id=":clusterJ76_J77_J78_J79_#5more_9" function="internal">
        <lane id=":clusterJ76_J77_J78_J79_#5more_9_0" index="0" speed="9.22" length="16.86" shape="10.45,-17.91 11.49,-13.81 13.77,-10.78 17.28,-8.82 22.02,-7.93"/>
    </edge>
    <edge id=":clusterJ76_J77_J78_J79_#5more_10" function="internal">
        <lane id=":clusterJ76_J77_J78_J79_#5more_10_0" index="0" speed="13.89" length="30.87" shape="10.45,-17.91 11.42,13.06"/>
        <lane id=":clusterJ76_J77_J78_J79_#5more_10_1" index="1" speed="13.89" length="30.87" shape="7.27,-17.61 8.22,13.14"/>
    </edge>
    <edge id=":clusterJ76_J77_J78_J79_#5more_12" function="internal">
        <lane id=":clusterJ76_J77_J78_J79_#5more_12_0" index="0" speed="11.50" length="35.53" shape="4.08,-17.31 1.39,-10.45 -5.99,-4.08 -15.17,0.41 -23.28,1.65"/>
    </edge>
    <edge id=":clusterJ76_J77_J78_J79_#5more_13" function="internal">
        <lane id=":clusterJ76_J77_J78_J79_#5more_13_0" index="0" allow="tram" speed="13.89" length="30.34" shape="-1.20,-16.81 2.87,13.26"/>
    </edge>
    <edge id=":clusterJ76_J77_J78_J79_#5more_14" function="internal">
        <lane id=":clusterJ76_J77_J78_J79_#5more_14_0" index="0" speed="13.89" length="43.86" shape="-21.62,-11.05 22.02,-7.93"/>
        <lane id=":clusterJ76_J77_J78_J79_#5more_14_1" index="1" speed="13.89" length="43.86" shape="-22.04,-7.87 21.81,-4.74"/>
    </edge>
    <edge id=":clusterJ76_J77_J78_J79_#5more_16" function="internal">
        <lane id=":clusterJ76_J77_J78_J79_#5more_16_0" index="0" speed="13.89" length="40.85" shape="-22.45,-4.70 -7.75,-1.98 2.79,1.89 9.18,6.90 11.42,13.06"/>
        <lane id=":clusterJ76_J77_J78_J79_#5more_16_1" index="1" speed="13.32" length="36.41" shape="-22.86,-1.53 -9.36,0.87 0.32,4.12 6.18,8.20 8.22,13.14"/>
    </edge>

    <edge id="-E0" from="clusterJ76_J77_J78_J79_#5more" to="clusterJ0_J42" priority="-1" shape="-23.07,0.06 -91.70,-8.88">
        <lane id="-E0_0" index="0" speed="13.89" length="69.21" shape="-23.69,4.82 -92.32,-4.12"/>
        <lane id="-E0_1" index="1" speed="13.89" length="69.21" shape="-23.28,1.65 -91.91,-7.29"/>
    </edge>
    <edge id="-E13" from="clusterJ40_J6" to="clusterJ65_J66_J67" priority="-1" shape="120.10,8.22 151.13,9.62">
        <lane id="-E13_0" index="0" speed="13.89" length="29.51" shape="120.32,3.42 149.78,4.75"/>
        <lane id="-E13_1" index="1" speed="13.89" length="29.51" shape="120.17,6.62 149.66,7.95"/>
    </edge>
    <edge id="-E14" from="clusterJ0_J42" to="clusterJ41_J44" priority="-1" shape="-106.19,-12.15 -127.04,-14.46">
        <lane id="-E14_0" index="0" speed="13.89" length="20.98" shape="-106.37,-10.56 -127.22,-12.87"/>
    </edge>
    <edge id="-E15" from="clusterJ41_J44" to="clusterJ43_J69" priority="-1" shape="-134.75,-16.88 -163.26,-20.43">
        <lane id="-E15_0" index="0" speed="13.89" length="28.73" shape="-134.95,-15.29 -163.46,-18.84"/>
    </edge>
    <edge id="-E21" from="clusterJ65_J66_J67" to="J63" priority="-1" shape="156.70,10.17 498.47,39.99">
        <lane id="-E21_0" index="0" speed="13.89" length="343.07" shape="157.12,5.39 498.89,35.21"/>
        <lane id="-E21_1" index="1" speed="13.89" length="343.07" shape="156.84,8.58 498.61,38.40"/>
    </edge>
    <edge id="-E22" from="clusterJ43_J69" to="J68" priority="-1" shape="-172.34,-21.64 -536.06,-49.33">
        <lane id="-E22_0" index="0" speed="13.89" length="364.77" shape="-172.46,-20.04 -536.18,-47.73"/>
    </edge>
    <edge id="-E3" from="clusterJ76_J77_J78_J79_#5more" to="clusterJ40_J6" priority="-1" shape="22.02,-3.12 80.15,0.74">
        <lane id="-E3_0" index="0" speed="13.89" length="58.58" shape="22.02,-7.93 80.47,-4.05"/>
        <lane id="-E3_1" index="1" speed="13.89" length="58.58" shape="21.81,-4.74 80.26,-0.86"/>
    </edge>
    <edge id="-E6" from="clusterJ76_J77_J78_J79_#5more" to="J12" priority="-1" shape="-2.71,-15.80 -31.20,-325.94">
        <lane id="-E6_0" index="0" allow="tram" speed="13.89" length="310.59" shape="-4.38,-16.50 -32.79,-325.79"/>
    </edge>
    <edge id="-E7" from="J15" to="clusterJ76_J77_J78_J79_#5more" priority="-1" shape="23.64,338.29 0.31,12.08">
        <lane id="-E7_0" index="0" allow="tram" speed="13.89" length="325.87" shape="22.04,338.40 -1.20,13.36"/>
    </edge>
    <edge id="E0" from="clusterJ0_J42" to="clusterJ30_J32" priority="-1" shape="-91.70,-8.88 -31.49,-1.02">
        <lane id="E0_0" index="0" speed="13.89" length="58.77" shape="-90.25,-19.99 -31.97,-12.38"/>
        <lane id="E0_1" index="1" speed="13.89" length="58.77" shape="-90.66,-16.81 -32.38,-9.20"/>
        <lane id="E0_2" index="2" speed="13.89" length="58.77" shape="-91.08,-13.64 -32.80,-6.03"/>
        <lane id="E0_3" index="3" speed="13.89" length="58.77" shape="-91.49,-10.47 -33.21,-2.86"/>
    </edge>
    <edge id="E0.61" from="clusterJ30_J32" to="clusterJ76_J77_J78_J79_#5more" priority="-1" shape="-31.49,-1.02 -23.07,0.06">
        <lane id="E0.61_0" index="0" speed="13.89" length="2.32" shape="-23.93,-11.34 -21.62,-11.05"/>
        <lane id="E0.61_1" index="1" speed="13.89" length="2.32" shape="-24.34,-8.17 -22.04,-7.87"/>
        <lane id="E0.61_2" index="2" speed="13.89" length="2.32" shape="-24.75,-4.99 -22.45,-4.70"/>
        <lane id="E0.61_3" index="3" speed="13.89" length="2.32" shape="-25.16,-1.82 -22.86,-1.53"/>
    </edge>
    <edge id="E1" from="clusterJ2_J35" to="clusterJ76_J77_J78_J79_#5more" priority="-1" shape="-2.28,46.15 -4.55,11.38">
        <lane id="E1_0" index="0" speed="13.89" length="30.85" shape="-13.60,44.69 -15.62,13.70"/>
        <lane id="E1_1" index="1" speed="13.89" length="30.85" shape="-10.41,44.48 -12.42,13.63"/>
        <lane id="E1_2" index="2" speed="13.89" length="30.85" shape="-7.21,44.27 -9.22,13.55"/>
        <lane id="E1_3" index="3" speed="13.89" length="30.85" shape="-4.02,44.06 -6.02,13.48"/>
    </edge>
    <edge id="E10" from="clusterJ30_J32" to="clusterJ31_J33" priority="-1" shape="-27.11,-11.76 -14.69,-25.59">
        <lane id="E10_0" index="0" speed="13.89" length="12.60" shape="-25.60,-15.83 -17.18,-25.21"/>
    </edge>
    <edge id="E11" from="clusterJ34_J37" to="clusterJ2_J35" priority="-1" shape="-0.86,67.97 -2.96,49.46">
        <lane id="E11_0" index="0" speed="13.89" length="14.03" shape="-9.08,66.47 -10.66,52.53"/>
        <lane id="E11_1" index="1" speed="13.89" length="14.03" shape="-5.90,66.11 -7.48,52.17"/>
        <lane id="E11_2" index="2" speed="13.89" length="14.03" shape="-2.72,65.75 -4.30,51.81"/>
    </edge>
    <edge id="E12" from="clusterJ73_J74" to="clusterJ34_J37" priority="-1" shape="-0.58,107.07 -2.60,71.37">
        <lane id="E12_0" index="0" speed="13.89" length="33.35" shape="-5.37,107.34 -7.26,74.04"/>
        <lane id="E12_1" index="1" speed="13.89" length="33.35" shape="-2.18,107.16 -4.06,73.86"/>
    </edge>
    <edge id="E13" from="clusterJ65_J66_J67" to="clusterJ40_J6" priority="-1" shape="149.59,9.62 119.88,8.44">
        <lane id="E13_0" index="0" speed="13.89" length="29.54" shape="149.40,14.42 119.87,13.24"/>
        <lane id="E13_1" index="1" speed="13.89" length="29.54" shape="149.53,11.22 120.02,10.05"/>
    </edge>
    <edge id="E14" from="clusterJ41_J44" to="clusterJ0_J42" priority="-1" shape="-127.04,-14.46 -106.19,-12.15">
        <lane id="E14_0" index="0" speed="13.89" length="20.98" shape="-126.16,-22.41 -105.31,-20.10"/>
        <lane id="E14_1" index="1" speed="13.89" length="20.98" shape="-126.51,-19.23 -105.66,-16.92"/>
        <lane id="E14_2" index="2" speed="13.89" length="20.98" shape="-126.86,-16.05 -106.01,-13.74"/>
    </edge>
    <edge id="E15" from="clusterJ43_J69" to="clusterJ41_J44" priority="-1" shape="-163.26,-20.43 -134.75,-16.88">
        <lane id="E15_0" index="0" speed="13.89" length="28.73" shape="-162.67,-25.19 -134.16,-21.64"/>
        <lane id="E15_1" index="1" speed="13.89" length="28.73" shape="-163.06,-22.02 -134.55,-18.47"/>
    </edge>
    <edge id="E16" from="clusterJ45_J72" to="clusterJ24_J46" priority="-1" shape="-3.45,-117.16 -2.32,-101.96">
        <lane id="E16_0" index="0" speed="13.89" length="15.24" shape="1.34,-117.52 2.47,-102.32"/>
        <lane id="E16_1" index="1" speed="13.89" length="15.24" shape="-1.85,-117.28 -0.72,-102.08"/>
    </edge>
    <edge id="E2" from="clusterJ76_J77_J78_J79_#5more" to="clusterJ27_J28" priority="-1" shape="6.61,12.84 6.86,23.39">
        <lane id="E2_0" index="0" speed="13.89" length="3.64" shape="11.42,13.06 11.50,16.70"/>
        <lane id="E2_1" index="1" speed="13.89" length="3.64" shape="8.22,13.14 8.30,16.77"/>
    </edge>
    <edge id="E2.10" from="clusterJ27_J28" to="J5" priority="-1" shape="6.86,23.39 28.74,341.59">
        <lane id="E2.10_0" index="0" speed="13.89" length="316.81" shape="11.80,25.20 33.53,341.26"/>
        <lane id="E2.10_1" index="1" speed="13.89" length="316.81" shape="8.60,25.42 30.34,341.48"/>
    </edge>
    <edge id="E20" from="J60" to="clusterJ73_J74" priority="-1" shape="-92.28,445.76 -572.47,450.40 -575.46,449.64 -578.03,447.45 -578.82,445.22 -578.71,439.61 -577.46,434.67 -572.96,431.65 -95.64,424.20 -91.43,421.71 -88.11,417.39 -86.77,412.06 -87.06,408.49 -88.81,405.00 -91.78,402.49 -96.68,400.49 -570.61,404.67 -574.62,401.88 -577.46,398.30 -577.69,392.83 -574.91,387.46 -570.56,384.18 -91.99,380.71 -86.87,378.87 -83.75,376.47 -81.09,374.09 -79.96,370.96 -80.19,366.12 -82.85,362.12 -86.74,359.19 -91.28,357.58 -580.22,359.28 -584.80,355.95 -586.15,352.84 -586.19,347.12 -584.07,342.36 -579.80,338.76 -85.60,338.77 -78.95,338.66 -74.51,341.87 -71.70,347.14 -53.80,685.97 -49.59,690.94 -45.16,692.78 -38.36,692.21 -34.78,690.28 -31.28,686.53 -29.93,681.58 -45.01,344.29 -43.09,339.38 -37.94,335.56 -30.30,335.71 -26.28,337.60 -22.74,344.53 -5.72,676.77 -4.28,684.33 -0.57,691.45 3.27,695.45 9.23,697.56 15.82,697.12 25.89,691.87 33.81,678.42 -0.36,111.93">
        <lane id="E20_0" index="0" speed="13.89" length="4764.11" shape="-92.23,450.56 -573.05,455.21 -577.72,454.02 -582.12,450.27 -583.64,446.00 -583.50,438.97 -581.66,431.71 -574.46,426.87 -96.99,419.42 -94.67,418.05 -92.52,415.25 -91.62,411.66 -91.77,409.81 -92.66,408.03 -94.30,406.65 -97.60,405.30 -572.10,409.48 -577.94,405.42 -582.19,400.06 -582.54,391.76 -578.67,384.28 -572.18,379.39 -92.84,375.92 -89.20,374.61 -86.82,372.77 -85.19,371.32 -84.80,370.23 -84.92,367.67 -86.39,365.46 -89.04,363.47 -92.10,362.38 -581.77,364.09 -588.68,359.06 -590.94,353.85 -591.00,346.12 -588.01,339.40 -581.55,333.96 -85.64,333.97 -77.43,333.83 -70.80,338.63 -66.96,345.82 -49.09,684.10 -46.68,686.95 -44.40,687.90 -39.76,687.51 -37.75,686.43 -35.60,684.12 -34.76,681.04 -49.85,343.49 -47.06,336.35 -39.48,330.73 -29.18,330.93 -22.75,333.95 -18.00,343.26 -0.94,676.20 0.30,682.74 3.37,688.62 5.94,691.30 9.90,692.70 14.49,692.40 22.45,688.25 28.93,677.25 -5.15,112.22"/>
        <lane id="E20_1" index="1" speed="13.89" length="4764.11" shape="-92.26,447.36 -572.66,452.00 -576.21,451.10 -579.39,448.39 -580.43,445.48 -580.31,439.40 -578.86,433.68 -573.46,430.06 -96.09,422.61 -92.51,420.49 -89.58,416.68 -88.39,411.93 -88.63,408.93 -90.09,406.01 -92.62,403.88 -96.99,402.09 -571.11,406.27 -575.73,403.06 -579.04,398.89 -579.31,392.47 -576.16,386.40 -571.10,382.58 -92.27,379.11 -87.65,377.45 -84.77,375.24 -82.46,373.17 -81.57,370.72 -81.77,366.64 -84.03,363.23 -87.51,360.62 -91.55,359.18 -580.74,360.88 -586.09,356.99 -587.75,353.18 -587.79,346.79 -585.38,341.37 -580.38,337.16 -85.61,337.17 -78.44,337.05 -73.27,340.79 -70.12,346.70 -52.23,685.35 -48.62,689.61 -44.91,691.15 -38.83,690.64 -35.77,689.00 -32.72,685.73 -31.54,681.40 -46.62,344.02 -44.41,338.37 -38.45,333.95 -29.93,334.12 -25.10,336.38 -21.16,344.11 -4.13,676.58 -2.75,683.80 0.74,690.51 4.16,694.07 9.45,695.94 15.38,695.55 24.74,690.66 32.18,678.03 -1.96,112.03"/>
    </edge>
    <edge id="E21" from="J63" to="clusterJ65_J66_J67" priority="-1" shape="498.47,39.99 156.70,10.17">
        <lane id="E21_0" index="0" speed="13.89" length="343.07" shape="498.05,44.77 156.28,14.95"/>
        <lane id="E21_1" index="1" speed="13.89" length="343.07" shape="498.33,41.58 156.56,11.76"/>
    </edge>
    <edge id="E22" from="J68" to="clusterJ43_J69" priority="-1" shape="-536.06,-49.33 -172.34,-21.64">
        <lane id="E22_0" index="0" speed="13.89" length="364.77" shape="-535.70,-54.12 -171.98,-26.43"/>
        <lane id="E22_1" index="1" speed="13.89" length="364.77" shape="-535.94,-50.93 -172.22,-23.24"/>
    </edge>
    <edge id="E23" from="J71" to="clusterJ45_J72" priority="-1" shape="-126.26,-1367.11 -3.92,-123.85">
        <lane id="E23_0" index="0" speed="13.89" length="1249.26" shape="-121.48,-1367.58 0.86,-124.32"/>
        <lane id="E23_1" index="1" speed="13.89" length="1249.26" shape="-124.67,-1367.27 -2.33,-124.01"/>
    </edge>
    <edge id="E3" from="clusterJ40_J6" to="clusterJ26_J29" priority="-1" shape="80.15,0.74 27.94,-2.45">
        <lane id="E3_0" index="0" speed="13.89" length="48.67" shape="79.47,11.92 30.88,8.95"/>
        <lane id="E3_1" index="1" speed="13.89" length="48.67" shape="79.66,8.73 31.08,5.76"/>
        <lane id="E3_2" index="2" speed="13.89" length="48.67" shape="79.86,5.53 31.27,2.56"/>
        <lane id="E3_3" index="3" speed="13.89" length="48.67" shape="80.05,2.34 31.47,-0.63"/>
    </edge>
    <edge id="E3.82" from="clusterJ26_J29" to="clusterJ76_J77_J78_J79_#5more" priority="-1" shape="27.94,-2.67 22.02,-3.12">
        <lane id="E3.82_0" index="0" speed="13.89" length="2.45" shape="23.35,8.21 20.96,8.03"/>
        <lane id="E3.82_1" index="1" speed="13.89" length="2.45" shape="23.60,5.02 21.17,4.84"/>
        <lane id="E3.82_2" index="2" speed="13.89" length="2.45" shape="23.84,1.83 21.38,1.65"/>
        <lane id="E3.82_3" index="3" speed="13.89" length="2.45" shape="24.08,-1.36 21.60,-1.55"/>
    </edge>
    <edge id="E5" from="clusterJ76_J77_J78_J79_#5more" to="clusterJ31_J33" priority="-1" shape="-7.49,-15.87 -8.67,-28.32">
        <lane id="E5_0" index="0" speed="13.89" length="8.13" shape="-12.30,-15.75 -13.07,-23.85"/>
        <lane id="E5_1" index="1" speed="13.89" length="8.13" shape="-9.11,-16.05 -9.88,-24.15"/>
    </edge>
    <edge id="E5.12" from="clusterJ31_J33" to="J11" priority="-1" shape="-8.67,-28.32 -36.21,-327.19">
        <lane id="E5.12_0" index="0" speed="13.89" length="296.34" shape="-13.80,-31.66 -40.99,-326.75"/>
        <lane id="E5.12_1" index="1" speed="13.89" length="296.34" shape="-10.61,-31.96 -37.80,-327.04"/>
    </edge>
    <edge id="E6" from="J12" to="clusterJ76_J77_J78_J79_#5more" priority="-1" shape="-31.20,-325.94 -2.71,-15.80">
        <lane id="E6_0" index="0" allow="tram" speed="13.89" length="310.58" shape="-29.61,-326.09 -1.20,-16.81"/>
    </edge>
    <edge id="E7" from="clusterJ76_J77_J78_J79_#5more" to="J15" priority="-1" shape="1.20,12.28 23.64,338.29">
        <lane id="E7_0" index="0" allow="tram" speed="13.89" length="325.68" shape="2.87,13.26 25.24,338.18"/>
    </edge>
    <edge id="E8" from="clusterJ24_J46" to="clusterJ76_J77_J78_J79_#5more" priority="-1" shape="-3.33,-80.96 2.60,-15.94">
        <lane id="E8_0" index="0" speed="13.89" length="64.05" shape="4.64,-81.69 10.45,-17.91"/>
        <lane id="E8_1" index="1" speed="13.89" length="64.05" shape="1.45,-81.40 7.27,-17.61"/>
        <lane id="E8_2" index="2" speed="13.89" length="64.05" shape="-1.74,-81.11 4.08,-17.31"/>
    </edge>
    <edge id="E9" from="clusterJ26_J29" to="clusterJ27_J28" priority="-1" shape="24.34,10.22 13.46,18.57">
        <lane id="E9_0" index="0" speed="13.89" length="10.94" shape="24.51,12.11 15.83,18.77"/>
    </edge>

    <tlLogic id="clusterJ76_J77_J78_J79_#5more" type="static" programID="0" offset="0">
        <phase duration="1"  state="uuururrrruuururrrr"/>
        <phase duration="52.32" state="GGGrGrrrrGGGrGrrrr"/>
        <phase duration="3"  state="yyyryrrrryyyryrrrr"/>
        <phase duration="3"  state="rrrrrrrrrrrrrrrrrr"/>
        <phase duration="1"  state="rrrurrrrrrrrurrrrr"/>
        <phase duration="15.78" state="rrrGrrrrrrrrGrrrrr"/>
        <phase duration="3"  state="rrryrrrrrrrryrrrrr"/>
        <phase duration="3"  state="rrrrrrrrrrrrrrrrrr"/>
        <phase duration="1"  state="rrrrruuuurrrrrrrrr"/>
        <phase duration="16.60" state="rrrrrGGGGrrrrrrrrr"/>
        <phase duration="3"  state="rrrrryyyyrrrrrrrrr"/>
        <phase duration="3"  state="rrrrrrrrrrrrrrrrrr"/>
        <phase duration="1"  state="urrrrrrrrrrrrruuuu"/>
        <phase duration="20.30" state="rrrrrrrrrrrrrrGGGG"/>
        <phase duration="3"  state="yrrrrrrrrrrrrryyyy"/>
        <phase duration="3"  state="rrrrrrrrrrrrrrrrrr"/>
    </tlLogic>

    <junction id="J11" type="dead_end" x="-36.21" y="-327.19" incLanes="E5.12_0 E5.12_1" intLanes="" shape="-42.58,-326.60 -36.21,-327.19"/>
    <junction id="J12" type="dead_end" x="-31.20" y="-325.94" incLanes="-E6_0" intLanes="" shape="-31.20,-325.94 -34.39,-325.65 -31.20,-325.94"/>
    <junction id="J15" type="dead_end" x="23.64" y="338.29" incLanes="E7_0" intLanes="" shape="23.64,338.29 20.45,338.52 26.83,338.07"/>
    <junction id="J5" type="dead_end" x="28.74" y="341.59" incLanes="E2.10_0 E2.10_1" intLanes="" shape="35.12,341.15 28.74,341.59"/>
    <junction id="J60" type="dead_end" x="-92.28" y="445.76" incLanes="" intLanes="" shape="-92.28,445.76 -92.22,452.16"/>
    <junction id="J63" type="dead_end" x="498.47" y="39.99" incLanes="-E21_0 -E21_1" intLanes="" shape="498.47,39.99 499.03,33.61 498.47,39.99"/>
    <junction id="J68" type="dead_end" x="-536.06" y="-49.33" incLanes="-E22_0" intLanes="" shape="-536.06,-49.33 -536.30,-46.14 -536.06,-49.33"/>
    <junction id="J71" type="dead_end" x="-126.26" y="-1367.11" incLanes="" intLanes="" shape="-126.26,-1367.11 -119.89,-1367.74"/>
    <junction id="clusterJ0_J42" type="priority" x="-95.75" y="-10.74" incLanes="-E0_0 -E0_1 E14_0 E14_1 E14_2" intLanes=":clusterJ0_J42_0_0 :clusterJ0_J42_0_1 :clusterJ0_J42_2_0 :clusterJ0_J42_2_1 :clusterJ0_J42_2_2 :clusterJ0_J42_2_3" shape="-92.53,-2.53 -90.04,-21.57 -93.24,-21.86 -95.61,-21.85 -97.58,-21.69 -99.55,-21.51 -101.93,-21.46 -105.13,-21.69 -106.54,-8.97 -103.37,-8.27 -101.20,-7.14 -99.53,-5.81 -97.86,-4.46 -95.69,-3.30">
        <request index="0" response="000000" foes="000010" cont="0"/>