<?xml version="1.0" encoding="UTF-8"?>


<net version="1.16" junctionCornerDetail="5" limitTurnSpeed="5.50" xmlns:xsi="http://www.w3.org/2001/XMLSchema-instance" xsi:noNamespaceSchemaLocation="http://sumo.dlr.de/xsd/net_file.xsd">

    <location netOffset="-489660.10,-5883447.05" convBoundary="204.68,462.29,481.91,660.35" origBoundary="8.819738,53.099356,8.861214,53.112110" projParameter="+proj=utm +zone=32 +ellps=WGS84 +datum=WGS84 +units=m +no_defs"/>

    <type id="highway.bridleway" priority="1" numLanes="1" speed="2.78" allow="pedestrian" oneway="1" width="2.00"/>
    <type id="highway.bus_guideway" priority="1" numLanes="1" speed="27.78" allow="bus" oneway="1"/>
    <type id="highway.cycleway" priority="1" numLanes="1" speed="8.33" allow="bicycle" oneway="0" width="1.00"/>
    <type id="highway.footway" priority="1" numLanes="1" speed="2.78" allow="pedestrian" oneway="1" width="2.00"/>
    <type id="highway.ford" priority="1" numLanes="1" speed="2.78" allow="army" oneway="0"/>
    <type id="highway.living_street" priority="2" numLanes="1" speed="2.78" disallow="tram rail_urban rail rail_electric rail_fast ship" oneway="0"/>
    <type id="highway.motorway" priority="14" numLanes="2" speed="39.44" allow="private emergency authority army vip passenger hov taxi bus coach delivery truck trailer motorcycle evehicle custom1 custom2" oneway="1"/>
    <type id="highway.motorway_link" priority="9" numLanes="1" speed="22.22" allow="private emergency authority army vip passenger hov taxi bus coach delivery truck trailer motorcycle evehicle custom1 custom2" oneway="1"/>
    <type id="highway.path" priority="1" numLanes="1" speed="2.78" allow="pedestrian bicycle" oneway="1" width="2.00"/>
    <type id="highway.pedestrian" priority="1" numLanes="1" speed="2.78" allow="pedestrian" oneway="1" width="2.00"/>
    <type id="highway.primary" priority="12" numLanes="2" speed="27.78" disallow="tram rail_urban rail rail_electric rail_fast ship" oneway="0"/>
    <type id="highway.primary_link" priority="7" numLanes="1" speed="22.22" disallow="tram rail_urban rail rail_electric rail_fast ship" oneway="0"/>
    <type id="highway.raceway" priority="15" numLanes="2" speed="83.33" allow="vip" oneway="0"/>
    <type id="highway.residential" priority="3" numLanes="1" speed="13.89" disallow="tram rail_urban rail rail_electric rail_fast ship" oneway="0"/>
    <type id="highway.secondary" priority="11" numLanes="1" speed="27.78" disallow="tram rail_urban rail rail_electric rail_fast ship" oneway="0"/>
    <type id="highway.secondary_link" priority="6" numLanes="1" speed="22.22" disallow="tram rail_urban rail rail_electric rail_fast ship" oneway="0"/>
    <type id="highway.service" priority="1" numLanes="1" speed="5.56" allow="pedestrian delivery bicycle" oneway="0"/>
    <type id="highway.stairs" priority="1" numLanes="1" speed="1.39" allow="pedestrian" oneway="1" width="2.00"/>
    <type id="highway.step" priority="1" numLanes="1" speed="1.39" allow="pedestrian" oneway="1" width="2.00"/>
    <type id="highway.steps" priority="1" numLanes="1" speed="1.39" allow="pedestrian" oneway="1" width="2.00"/>
    <type id="highway.tertiary" priority="10" numLanes="1" speed="22.22" disallow="tram rail_urban rail rail_electric rail_fast ship" oneway="0"/>
    <type id="highway.tertiary_link" priority="5" numLanes="1" speed="22.22" disallow="tram rail_urban rail rail_electric rail_fast ship" oneway="0"/>
    <type id="highway.track" priority="1" numLanes="1" speed="5.56" disallow="tram rail_urban rail rail_electric rail_fast ship" oneway="0"/>
    <type id="highway.trunk" priority="13" numLanes="2" speed="27.78" disallow="pedestrian bicycle tram rail_urban rail rail_electric rail_fast ship" oneway="0"/>
    <type id="highway.trunk_link" priority="8" numLanes="1" speed="22.22" disallow="pedestrian bicycle tram rail_urban rail rail_electric rail_fast ship" oneway="0"/>
    <type id="highway.unclassified" priority="4" numLanes="1" speed="13.89" disallow="tram rail_urban rail rail_electric rail_fast ship" oneway="0"/>
    <type id="highway.unsurfaced" priority="1" numLanes="1" speed="8.33" disallow="tram rail_urban rail rail_electric rail_fast ship" oneway="0"/>
    <type id="railway.highspeed" priority="21" numLanes="1" speed="69.44" allow="rail_fast" oneway="1"/>
    <type id="railway.light_rail" priority="19" numLanes="1" speed="27.78" allow="rail_urban" oneway="1"/>
    <type id="railway.preserved" priority="16" numLanes="1" speed="27.78" allow="rail" oneway="1"/>
    <type id="railway.rail" priority="20" numLanes="1" speed="44.44" allow="rail" oneway="1"/>
    <type id="railway.subway" priority="18" numLanes="1" speed="27.78" allow="rail_urban" oneway="1"/>
    <type id="railway.tram" priority="17" numLanes="1" speed="13.89" allow="tram" oneway="1"/>

    <edge id=":1010791484_0" function="internal">
        <lane id=":1010791484_0_0" index="0" disallow="tram rail_urban rail rail_electric rail_fast ship" speed="8.94" length="1.62" shape="346.13,573.94 345.47,572.46"/>
    </edge>
    <edge id=":1010791484_1" function="internal">
        <lane id=":1010791484_1_0" index="0" disallow="tram rail_urban rail rail_electric rail_fast ship" speed="3.65" length="1.44" shape="346.13,573.94 346.30,572.50"/>
    </edge>
    <edge id=":1010791484_4" function="internal">
        <lane id=":1010791484_4_0" index="0" disallow="tram rail_urban rail rail_electric rail_fast ship" speed="3.65" length="3.23" shape="346.30,572.50 346.84,571.79 347.73,571.78 348.99,572.49"/>
    </edge>
    <edge id=":1010791484_2" function="internal">
        <lane id=":1010791484_2_0" index="0" disallow="tram rail_urban rail rail_electric rail_fast ship" speed="13.89" length="6.83" shape="346.12,566.29 348.99,572.49"/>
    </edge>
    <edge id=":1010791484_3" function="internal">
        <lane id=":1010791484_3_0" index="0" disallow="tram rail_urban rail rail_electric rail_fast ship" speed="5.69" length="8.79" shape="346.12,566.29 348.48,571.33 349.16,574.04 348.76,574.19"/>
    </edge>
    <edge id=":1010791484_5" function="internal">
        <lane id=":1010791484_5_0" index="0" disallow="tram rail_urban rail rail_electric rail_fast ship" speed="5.69" length="3.96" shape="348.76,574.19 348.16,574.41 345.47,572.46"/>
    </edge>
    <edge id=":1010791485_0" function="internal">
        <lane id=":1010791485_0_0" index="0" disallow="tram rail_urban rail rail_electric rail_fast ship" speed="13.89" length="3.03" shape="339.88,567.84 339.14,567.32 338.63,566.98 338.10,566.67 337.31,566.24"/>
    </edge>
    <edge id=":1010791485_1" function="internal">
        <lane id=":1010791485_1_0" index="0" allow="tram" speed="13.89" length="5.21" shape="338.66,568.40 338.72,566.85 338.74,565.78 338.89,564.74 339.33,563.26"/>
    </edge>
    <edge id=":1010791540_0" function="internal">
        <lane id=":1010791540_0_0" index="0" allow="pedestrian delivery bicycle" speed="9.72" length="5.65" shape="335.45,568.18 335.02,566.55 334.71,565.45 334.35,564.36 333.76,562.79"/>
    </edge>
    <edge id=":1010791540_1" function="internal">
        <lane id=":1010791540_1_0" index="0" disallow="tram rail_urban rail rail_electric rail_fast ship" speed="8.14" length="4.93" shape="337.13,566.14 335.85,565.45 334.99,564.87 334.36,564.09 333.76,562.79"/>
    </edge>
    <edge id=":1815367406_0" function="internal">
        <lane id=":1815367406_0_0" index="0" disallow="tram rail_urban rail rail_electric rail_fast ship" speed="13.89" length="3.00" shape="298.20,528.88 301.00,527.80"/>
        <lane id=":1815367406_0_1" index="1" disallow="tram rail_urban rail rail_electric rail_fast ship" speed="13.89" length="3.00" shape="299.35,531.86 302.16,530.78"/>
    </edge>
    <edge id=":1920075450_0" function="internal">
        <lane id=":1920075450_0_0" index="0" disallow="tram rail_urban rail rail_electric rail_fast ship" speed="3.65" length="4.67" shape="391.70,657.54 391.52,658.97 390.99,659.69 390.10,659.69 388.84,658.98"/>
    </edge>
    <edge id=":20980427_0" function="internal">
        <lane id=":20980427_0_0" index="0" disallow="tram rail_urban rail rail_electric rail_fast ship" speed="13.89" length="3.00" shape="303.13,489.65 301.83,486.95"/>
    </edge>
    <edge id=":20980427_1" function="internal">
        <lane id=":20980427_1_0" index="0" disallow="tram rail_urban rail rail_electric rail_fast ship" speed="3.65" length="1.44" shape="303.13,489.65 303.33,488.23"/>
    </edge>
    <edge id=":20980427_4" function="internal">
        <lane id=":20980427_4_0" index="0" disallow="tram rail_urban rail rail_electric rail_fast ship" speed="3.65" length="3.23" shape="303.33,488.23 303.88,487.52 304.77,487.54 306.01,488.27"/>
    </edge>
    <edge id=":20980427_2" function="internal">
        <lane id=":20980427_2_0" index="0" disallow="tram rail_urban rail rail_electric rail_fast ship" speed="13.89" length="3.00" shape="304.72,485.57 306.01,488.27"/>
    </edge>
    <edge id=":20980427_3" function="internal">
        <lane id=":20980427_3_0" index="0" disallow="tram rail_urban rail rail_electric rail_fast ship" speed="3.65" length="1.44" shape="304.72,485.57 304.51,486.99"/>
    </edge>
    <edge id=":20980427_5" function="internal">
        <lane id=":20980427_5_0" index="0" disallow="tram rail_urban rail rail_electric rail_fast ship" speed="3.65" length="3.23" shape="304.51,486.99 303.96,487.70 303.07,487.68 301.83,486.95"/>
    </edge>
    <edge id=":20980459_0" function="internal">
        <lane id=":20980459_0_0" index="0" disallow="tram rail_urban rail rail_electric rail_fast ship" speed="13.89" length="12.25" shape="321.22,527.98 320.37,524.80 319.18,522.28 317.75,519.83 316.18,516.89"/>
    </edge>
    <edge id=":20980459_1" function="internal">
        <lane id=":20980459_1_0" index="0" disallow="tram rail_urban rail rail_electric rail_fast ship" speed="7.72" length="1.89" shape="321.22,527.98 321.25,526.08"/>
    </edge>
    <edge id=":20980459_2" function="internal">
        <lane id=":20980459_2_0" index="0" disallow="tram rail_urban rail rail_electric rail_fast ship" speed="4.97" length="3.00" shape="321.22,527.98 321.03,525.33 321.18,525.02"/>
    </edge>
    <edge id=":20980459_10" function="internal">
        <lane id=":20980459_10_0" index="0" disallow="tram rail_urban rail rail_electric rail_fast ship" speed="7.72" length="9.10" shape="321.25,526.08 321.26,525.55 322.30,523.40 324.34,521.54 327.36,519.95"/>
    </edge>
    <edge id=":20980459_11" function="internal">
        <lane id=":20980459_11_0" index="0" disallow="tram rail_urban rail rail_electric rail_fast ship" speed="4.97" length="5.23" shape="321.18,525.02 321.64,524.12 323.05,524.36 325.27,526.04"/>
    </edge>
    <edge id=":20980459_3" function="internal">
        <lane id=":20980459_3_0" index="0" disallow="tram rail_urban rail rail_electric rail_fast ship" speed="6.32" length="8.10" shape="319.06,515.50 320.16,516.97 321.71,517.71 323.71,517.72 326.15,516.99"/>
    </edge>
    <edge id=":20980459_4" function="internal">
        <lane id=":20980459_4_0" index="0" disallow="tram rail_urban rail rail_electric rail_fast ship" speed="13.89" length="12.34" shape="319.06,515.50 320.43,518.58 321.60,521.20 323.05,523.60 325.27,526.04"/>
    </edge>
    <edge id=":20980459_5" function="internal">
        <lane id=":20980459_5_0" index="0" disallow="tram rail_urban rail rail_electric rail_fast ship" speed="3.65" length="1.44" shape="319.06,515.50 318.86,516.93"/>
    </edge>
    <edge id=":20980459_12" function="internal">
        <lane id=":20980459_12_0" index="0" disallow="tram rail_urban rail rail_electric rail_fast ship" speed="3.65" length="3.23" shape="318.86,516.93 318.31,517.64 317.42,517.62 316.18,516.89"/>
    </edge>
    <edge id=":20980459_6" function="internal">
        <lane id=":20980459_6_0" index="0" disallow="tram rail_urban rail rail_electric rail_fast ship" speed="6.04" length="7.74" shape="312.76,522.79 314.90,521.54 316.18,520.14 316.60,518.59 316.18,516.89"/>
    </edge>
    <edge id=":20980459_7" function="internal">
        <lane id=":20980459_7_0" index="0" disallow="tram rail_urban rail rail_electric rail_fast ship" speed="13.89" length="14.53" shape="312.76,522.79 326.15,516.99"/>
        <lane id=":20980459_7_1" index="1" disallow="tram rail_urban rail rail_electric rail_fast ship" speed="13.89" length="14.53" shape="314.09,525.70 327.36,519.95"/>
    </edge>
    <edge id=":20980459_9" function="internal">
        <lane id=":20980459_9_0" index="0" disallow="tram rail_urban rail rail_electric rail_fast ship" speed="8.73" length="11.86" shape="314.09,525.70 317.50,524.49 320.50,524.14 323.09,524.66 325.27,526.04"/>
    </edge>
    <edge id=":21530461_0" function="internal">
        <lane id=":21530461_0_0" index="0" allow="tram" speed="13.89" length="10.57" shape="345.50,555.93 343.93,558.56 343.06,560.59 342.59,562.77 342.22,565.81"/>
    </edge>
    <edge id=":21530461_1" function="internal">
        <lane id=":21530461_1_0" index="0" disallow="tram rail_urban rail rail_electric rail_fast ship" speed="13.89" length="6.52" shape="342.44,559.04 345.38,564.86"/>
    </edge>
    <edge id=":21530466_0" function="internal">
        <lane id=":21530466_0_0" index="0" allow="pedestrian delivery bicycle" speed="3.95" length="4.64" shape="361.63,623.26 361.26,623.21 360.53,622.08 359.74,620.60 359.18,619.50"/>
    </edge>
    <edge id=":250800627_0" function="internal">
        <lane id=":250800627_0_0" index="0" disallow="tram rail_urban rail rail_electric rail_fast ship" speed="13.89" length="3.00" shape="312.57,509.35 311.27,506.65"/>
    </edge>
    <edge id=":250800627_1" function="internal">
        <lane id=":250800627_1_0" index="0" disallow="tram rail_urban rail rail_electric rail_fast ship" speed="3.65" length="1.44" shape="312.57,509.35 312.77,507.93"/>
    </edge>
    <edge id=":250800627_4" function="internal">
        <lane id=":250800627_4_0" index="0" disallow="tram rail_urban rail rail_electric rail_fast ship" speed="3.65" length="3.23" shape="312.77,507.93 313.32,507.22 314.21,507.23 315.45,507.97"/>
    </edge>
    <edge id=":250800627_2" function="internal">
        <lane id=":250800627_2_0" index="0" disallow="tram rail_urban rail rail_electric rail_fast ship" speed="13.89" length="3.00" shape="314.15,505.27 315.45,507.97"/>
    </edge>
    <edge id=":250800627_3" function="internal">
        <lane id=":250800627_3_0" index="0" disallow="tram rail_urban rail rail_electric rail_fast ship" speed="3.65" length="1.44" shape="314.15,505.27 313.95,506.69"/>
    </edge>
    <edge id=":250800627_5" function="internal">
        <lane id=":250800627_5_0" index="0" disallow="tram rail_urban rail rail_electric rail_fast ship" speed="3.65" length="3.23" shape="313.95,506.69 313.40,507.40 312.51,507.39 311.27,506.65"/>
    </edge>
    <edge id=":25350583_0" function="internal">
        <lane id=":25350583_0_0" index="0" disallow="tram rail_urban rail rail_electric rail_fast ship" speed="6.37" length="8.45" shape="335.97,530.05 333.89,531.27 332.65,532.80 332.28,534.63 332.76,536.77"/>
    </edge>
    <edge id=":25350583_1" function="internal">
        <lane id=":25350583_1_0" index="0" disallow="tram rail_urban rail rail_electric rail_fast ship" speed="13.89" length="10.21" shape="335.97,530.05 326.44,533.89"/>
        <lane id=":25350583_1_1" index="1" disallow="tram rail_urban rail rail_electric rail_fast ship" speed="13.89" length="10.21" shape="334.72,527.10 325.31,530.89"/>
    </edge>
    <edge id=":25350583_3" function="internal">
        <lane id=":25350583_3_0" index="0" disallow="tram rail_urban rail rail_electric rail_fast ship" speed="13.89" length="13.02" shape="325.42,526.18 327.86,528.60 329.78,531.00 331.35,533.63 332.76,536.77"/>
    </edge>
    <edge id=":25350583_4" function="internal">
        <lane id=":25350583_4_0" index="0" disallow="tram rail_urban rail rail_electric rail_fast ship" speed="4.86" length="2.54" shape="325.42,526.18 326.77,527.71 326.92,528.19"/>
    </edge>
    <edge id=":25350583_5" function="internal">
        <lane id=":25350583_5_0" index="0" disallow="tram rail_urban rail rail_electric rail_fast ship" speed="4.86" length="3.66" shape="326.92,528.19 327.20,529.01 326.71,530.07 325.31,530.89"/>
    </edge>
    <edge id=":25350584_0" function="internal">
        <lane id=":25350584_0_0" index="0" disallow="tram rail_urban rail rail_electric rail_fast ship" speed="6.41" length="8.71" shape="324.79,540.08 323.61,538.09 322.03,536.97 320.04,536.70 317.66,537.30"/>
    </edge>
    <edge id=":25350584_1" function="internal">
        <lane id=":25350584_1_0" index="0" disallow="tram rail_urban rail rail_electric rail_fast ship" speed="13.89" length="12.45" shape="324.79,540.08 323.57,536.96 322.65,534.24 321.91,531.46 321.25,528.17"/>
    </edge>
    <edge id=":25350584_2" function="internal">
        <lane id=":25350584_2_0" index="0" disallow="tram rail_urban rail rail_electric rail_fast ship" speed="13.89" length="9.25" shape="326.25,533.96 317.66,537.30"/>
        <lane id=":25350584_2_1" index="1" disallow="tram rail_urban rail rail_electric rail_fast ship" speed="13.89" length="9.25" shape="325.12,530.96 316.47,534.33"/>
    </edge>
    <edge id=":25350584_4" function="internal">
        <lane id=":25350584_4_0" index="0" disallow="tram rail_urban rail rail_electric rail_fast ship" speed="5.03" length="5.68" shape="325.12,530.96 323.69,531.24 322.57,530.86 321.76,529.84 321.25,528.17"/>
    </edge>
    <edge id=":25350594_0" function="internal">
        <lane id=":25350594_0_0" index="0" disallow="tram rail_urban rail rail_electric rail_fast ship" speed="13.89" length="0.27" shape="409.55,496.95 409.27,497.08"/>
        <lane id=":25350594_0_1" index="1" disallow="tram rail_urban rail rail_electric rail_fast ship" speed="13.89" length="0.27" shape="408.15,494.07 407.95,494.17"/>
    </edge>
    <edge id=":2576185757_0" function="internal">
        <lane id=":2576185757_0_0" index="0" disallow="tram rail_urban rail rail_electric rail_fast ship" speed="13.89" length="9.48" shape="338.52,550.20 342.36,558.86"/>
    </edge>
    <edge id=":2576185757_1" function="internal">
        <lane id=":2576185757_1_0" index="0" allow="tram" speed="13.89" length="12.82" shape="339.71,562.13 340.83,558.90 341.94,556.11 343.31,553.45 345.19,550.61"/>
    </edge>
    <edge id=":2576185761_0" function="internal">
        <lane id=":2576185761_0_0" index="0" disallow="tram rail_urban rail rail_electric rail_fast ship" speed="13.89" length="6.86" shape="345.32,572.33 343.80,570.97 342.76,570.04 341.68,569.16 340.04,567.96"/>
    </edge>
    <edge id=":2576185761_1" function="internal">
        <lane id=":2576185761_1_0" index="0" allow="tram" speed="13.89" length="10.45" shape="342.20,566.01 341.87,569.04 341.71,571.21 341.71,573.40 341.87,576.43"/>
    </edge>
    <edge id=":2576185764_0" function="internal">
        <lane id=":2576185764_0_0" index="0" allow="tram" speed="13.89" length="9.36" shape="338.72,577.93 338.41,575.18 338.34,573.28 338.45,571.37 338.65,568.60"/>
    </edge>
    <edge id=":2576185764_1" function="internal">
        <lane id=":2576185764_1_0" index="0" allow="pedestrian delivery bicycle" speed="5.56" length="10.09" shape="339.06,577.79 337.82,575.07 336.99,573.18 336.31,571.24 335.50,568.37"/>
    </edge>
    <edge id=":2576185772_0" function="internal">
        <lane id=":2576185772_0_0" index="0" allow="pedestrian delivery bicycle" speed="5.56" length="8.00" shape="362.71,615.13 361.66,623.06"/>
    </edge>
    <edge id=":2576185772_1" function="internal">
        <lane id=":2576185772_1_0" index="0" allow="bus tram" speed="13.89" length="12.78" shape="358.88,615.31 365.02,626.52"/>
    </edge>
    <edge id=":295034539_0" function="internal">
        <lane id=":295034539_0_0" index="0" disallow="tram rail_urban rail rail_electric rail_fast ship" speed="3.65" length="4.67" shape="290.43,463.15 290.63,461.72 291.18,461.02 292.07,461.03 293.31,461.77"/>
    </edge>
    <edge id=":3239237480_0" function="internal">
        <lane id=":3239237480_0_0" index="0" disallow="tram rail_urban rail rail_electric rail_fast ship" speed="13.89" length="1.25" shape="345.47,565.04 344.90,563.93"/>
    </edge>
    <edge id=":351981288_0" function="internal">
        <lane id=":351981288_0_0" index="0" disallow="tram rail_urban rail rail_electric rail_fast ship" speed="13.89" length="3.00" shape="300.62,484.42 299.33,481.72"/>
    </edge>
    <edge id=":351981288_1" function="internal">
        <lane id=":351981288_1_0" index="0" disallow="tram rail_urban rail rail_electric rail_fast ship" speed="3.65" length="1.44" shape="300.62,484.42 300.83,483.00"/>
    </edge>
    <edge id=":351981288_4" function="internal">
        <lane id=":351981288_4_0" index="0" disallow="tram rail_urban rail rail_electric rail_fast ship" speed="3.65" length="3.23" shape="300.83,483.00 301.38,482.29 302.27,482.31 303.51,483.04"/>
    </edge>
    <edge id=":351981288_2" function="internal">
        <lane id=":351981288_2_0" index="0" disallow="tram rail_urban rail rail_electric rail_fast ship" speed="13.89" length="3.00" shape="302.21,480.34 303.51,483.04"/>
    </edge>
    <edge id=":351981288_3" function="internal">
        <lane id=":351981288_3_0" index="0" disallow="tram rail_urban rail rail_electric rail_fast ship" speed="3.65" length="1.44" shape="302.21,480.34 302.01,481.76"/>
    </edge>
    <edge id=":351981288_5" function="internal">
        <lane id=":351981288_5_0" index="0" disallow="tram rail_urban rail rail_electric rail_fast ship" speed="3.65" length="3.23" shape="302.01,481.76 301.46,482.47 300.57,482.46 299.33,481.72"/>
    </edge>
    <edge id=":4273905423_0" function="internal">
        <lane id=":4273905423_0_0" index="0" disallow="tram rail_urban rail rail_electric rail_fast ship" speed="13.89" length="0.30" shape="376.42,511.96 376.14,512.08"/>
        <lane id=":4273905423_0_1" index="1" disallow="tram rail_urban rail rail_electric rail_fast ship" speed="13.89" length="0.30" shape="375.10,509.04 374.82,509.16"/>
    </edge>
    <edge id=":4273905424_0" function="internal">
        <lane id=":4273905424_0_0" index="0" disallow="tram rail_urban rail rail_electric rail_fast ship" speed="13.89" length="0.30" shape="251.51,546.85 251.79,546.74"/>
        <lane id=":4273905424_0_1" index="1" disallow="tram rail_urban rail rail_electric rail_fast ship" speed="13.89" length="0.30" shape="252.67,549.83 252.94,549.73"/>
    </edge>
    <edge id=":703443419_0" function="internal">
        <lane id=":703443419_0_0" index="0" allow="pedestrian delivery bicycle" speed="4.73" length="7.45" shape="366.56,614.74 365.19,612.51 364.10,611.80 363.28,612.61 362.73,614.93"/>
    </edge>
    <edge id=":703443419_1" function="internal">
        <lane id=":703443419_1_0" index="0" disallow="tram rail_urban rail rail_electric rail_fast ship" speed="13.89" length="8.67" shape="366.56,614.74 362.66,607.00"/>
    </edge>
    <edge id=":703443419_2" function="internal">
        <lane id=":703443419_2_0" index="0" disallow="tram rail_urban rail rail_electric rail_fast ship" speed="3.65" length="1.44" shape="366.56,614.74 366.73,613.31"/>
    </edge>
    <edge id=":703443419_6" function="internal">
        <lane id=":703443419_6_0" index="0" disallow="tram rail_urban rail rail_electric rail_fast ship" speed="3.65" length="3.23" shape="366.73,613.31 367.27,612.59 368.16,612.59 369.41,613.30"/>
    </edge>
    <edge id=":703443419_3" function="internal">
        <lane id=":703443419_3_0" index="0" disallow="tram rail_urban rail rail_electric rail_fast ship" speed="13.89" length="8.65" shape="365.52,605.57 369.41,613.30"/>
    </edge>
    <edge id=":703443419_4" function="internal">
        <lane id=":703443419_4_0" index="0" allow="pedestrian delivery bicycle" speed="9.72" length="2.55" shape="365.52,605.57 366.06,608.06"/>
    </edge>
    <edge id=":703443419_5" function="internal">
        <lane id=":703443419_5_0" index="0" disallow="tram rail_urban rail rail_electric rail_fast ship" speed="3.65" length="1.44" shape="365.52,605.57 365.34,607.00"/>
    </edge>
    <edge id=":703443419_7" function="internal">
        <lane id=":703443419_7_0" index="0" allow="pedestrian delivery bicycle" speed="9.72" length="7.72" shape="366.06,608.06 366.09,608.20 365.18,610.07 363.74,612.04 362.73,614.93"/>
    </edge>
    <edge id=":703443419_8" function="internal">
        <lane id=":703443419_8_0" index="0" disallow="tram rail_urban rail rail_electric rail_fast ship" speed="3.65" length="3.23" shape="365.34,607.00 364.80,607.72 363.91,607.72 362.66,607.00"/>
    </edge>
    <edge id=":766862380_0" function="internal">
        <lane id=":766862380_0_0" index="0" disallow="tram rail_urban rail rail_electric rail_fast ship" speed="13.89" length="4.41" shape="332.84,536.96 334.54,541.02"/>
    </edge>
    <edge id=":766862380_1" function="internal">
        <lane id=":766862380_1_0" index="0" allow="pedestrian bicycle" speed="4.74" length="4.13" width="2.00" shape="332.84,536.96 332.96,537.80 332.65,538.59 331.89,539.32 330.69,539.99"/>
    </edge>
    <edge id=":766862381_0" function="internal">
        <lane id=":766862381_0_0" index="0" disallow="tram rail_urban rail rail_electric rail_fast ship" speed="13.89" length="5.10" shape="314.14,538.70 309.33,540.53"/>
        <lane id=":766862381_0_1" index="1" disallow="tram rail_urban rail rail_electric rail_fast ship" speed="13.89" length="5.10" shape="312.96,535.73 308.24,537.52"/>
    </edge>
    <edge id=":766862381_2" function="internal">
        <lane id=":766862381_2_0" index="0" allow="pedestrian bicycle" speed="4.85" length="4.55" width="2.00" shape="312.96,535.73 311.87,535.95 310.93,535.69 310.13,534.96 309.48,533.74"/>
    </edge>
    <edge id=":766862393_0" function="internal">
        <lane id=":766862393_0_0" index="0" disallow="tram rail_urban rail rail_electric rail_fast ship" speed="13.89" length="6.58" shape="316.09,516.71 313.24,510.77"/>
    </edge>
    <edge id=":766862393_1" function="internal">
        <lane id=":766862393_1_0" index="0" disallow="tram rail_urban rail rail_electric rail_fast ship" speed="3.65" length="1.44" shape="316.09,516.71 316.29,515.28"/>
    </edge>
    <edge id=":766862393_6" function="internal">
        <lane id=":766862393_6_0" index="0" disallow="tram rail_urban rail rail_electric rail_fast ship" speed="3.65" length="3.23" shape="316.29,515.28 316.84,514.57 317.74,514.59 318.98,515.32"/>
    </edge>
    <edge id=":766862393_2" function="internal">
        <lane id=":766862393_2_0" index="0" disallow="tram rail_urban rail rail_electric rail_fast ship" speed="13.89" length="6.59" shape="316.13,509.38 318.98,515.32"/>
    </edge>
    <edge id=":766862393_3" function="internal">
        <lane id=":766862393_3_0" index="0" disallow="tram rail_urban rail rail_electric rail_fast ship" speed="3.65" length="1.44" shape="316.13,509.38 315.93,510.81"/>
    </edge>
    <edge id=":766862393_7" function="internal">
        <lane id=":766862393_7_0" index="0" disallow="tram rail_urban rail rail_electric rail_fast ship" speed="3.65" length="3.23" shape="315.93,510.81 315.38,511.52 314.48,511.50 313.24,510.77"/>
    </edge>
    <edge id=":766862393_4" function="internal">
        <lane id=":766862393_4_0" index="0" allow="pedestrian bicycle" speed="7.59" length="7.83" width="2.00" shape="313.05,518.23 313.89,516.55 314.21,514.74 313.99,512.82 313.24,510.77"/>
    </edge>
    <edge id=":766862393_5" function="internal">
        <lane id=":766862393_5_0" index="0" allow="pedestrian bicycle" speed="5.21" length="8.13" width="2.00" shape="313.05,518.23 315.03,515.69 316.68,514.36 318.00,514.23 318.98,515.32"/>
    </edge>
    <edge id=":766862397_0" function="internal">
        <lane id=":766862397_0_0" index="0" disallow="tram rail_urban rail rail_electric rail_fast ship" speed="13.89" length="5.07" shape="345.26,526.04 340.58,528.09"/>
        <lane id=":766862397_0_1" index="1" disallow="tram rail_urban rail rail_electric rail_fast ship" speed="13.89" length="5.07" shape="343.94,523.12 339.33,525.14"/>
    </edge>
    <edge id=":766862397_2" function="internal">
        <lane id=":766862397_2_0" index="0" allow="pedestrian bicycle" speed="4.62" length="4.56" width="2.00" shape="340.35,521.30 340.79,522.60 340.76,523.68 340.27,524.53 339.33,525.14"/>
    </edge>
    <edge id=":766862403_0" function="internal">
        <lane id=":766862403_0_0" index="0" allow="pedestrian bicycle" speed="2.78" length="9.01" width="2.00" shape="308.63,531.59 308.06,529.41 308.06,527.26 308.63,525.13 309.78,523.02"/>
    </edge>
    <edge id=":766862403_1" function="internal">
        <lane id=":766862403_1_0" index="0" allow="pedestrian bicycle" speed="5.72" length="6.84" width="2.00" shape="308.63,531.59 308.43,530.19 308.96,528.89 310.22,527.68 312.21,526.56"/>
    </edge>
    <edge id=":766862403_2" function="internal">
        <lane id=":766862403_2_0" index="0" allow="pedestrian bicycle" speed="8.34" length="7.00" width="2.00" shape="304.02,526.63 305.99,525.94 307.37,525.41 308.52,524.59 309.78,523.02"/>
    </edge>
    <edge id=":766862403_3" function="internal">
        <lane id=":766862403_3_0" index="0" disallow="tram rail_urban rail rail_electric rail_fast ship" speed="13.89" length="7.57" shape="304.02,526.63 310.88,523.65"/>
        <lane id=":766862403_3_1" index="1" disallow="tram rail_urban rail rail_electric rail_fast ship" speed="13.89" length="7.57" shape="305.18,529.61 312.21,526.56"/>
    </edge>
    <edge id=":766862405_0" function="internal">
        <lane id=":766862405_0_0" index="0" disallow="tram rail_urban rail rail_electric rail_fast ship" speed="13.89" length="4.95" shape="334.27,513.66 338.80,511.75"/>
        <lane id=":766862405_0_1" index="1" disallow="tram rail_urban rail rail_electric rail_fast ship" speed="13.89" length="4.95" shape="335.49,516.62 340.07,514.69"/>
    </edge>
    <edge id=":766862405_2" function="internal">